207
Triad, Carotenoid-Porphyrin-C60
C 52.71041488647461 36.64638900756836 36.27095031738281
C 55.458431243896484 36.47052001953125 42.25220489501953
C 53.305606842041016 36.66006088256836 41.54192352294922
C 51.83442306518555 36.28403091430664 39.72074890136719
C 57.53300094604492 35.742332458496094 41.158531188964844
C 56.765525817871094 36.73411178588867 41.7647705078125
C 55.696693420410156 34.18331527709961 41.43939208984375
C 53.00555419921875 34.50639343261719 40.81059265136719
C 53.247703552246094 34.42649459838867 36.451622009277344
C 56.96681213378906 34.481468200683594 40.938270568847656
C 51.97480773925781 36.171451568603516 37.32343292236328
C 58.40334701538086 36.16789627075195 37.69346618652344
C 58.2667236328125 36.286380767822266 40.092254638671875
C 57.03241729736328 35.75016784667969 35.762542724609375
C 55.647098541259766 33.79764175415039 36.17009735107422
C 55.888668060302734 34.99455261230469 35.46412658691406
C 57.963233947753906 34.24208450317383 38.770957946777344
C 55.105560302734375 33.3378791809082 40.49394989013672
C 53.75483322143555 33.474884033203125 40.26673126220703
C 54.35848617553711 32.939666748046875 37.92188262939453
C 54.55708312988281 40.01854705810547 39.23466491699219
C 55.96183395385742 39.59214401245117 39.52619934082031
C 53.86885452270508 39.139923095703125 40.26555633544922
C 54.72140884399414 38.59214782714844 41.24134826660156
C 55.313297271728516 37.18376922607422 35.450889587402344
C 56.84711837768555 39.18094253540039 38.51007080078125
C 51.741851806640625 36.90814971923828 38.49220275878906
C 58.14967727661133 37.556419372558594 37.64415740966797
C 57.98992919921875 37.67041778564453 40.037261962890625
C 56.69623947143555 37.078285217285156 35.700050354003906
C 52.709842681884766 38.34136962890625 39.917327880859375
C 57.597496032714844 34.060245513916016 37.41178894042969
C 56.42076110839844 33.38895797729492 37.15211486816406
C 53.36261749267578 33.253963470458984 38.941383361816406
C 56.050479888916016 33.00889587402344 39.54688262939453
C 54.09559631347656 39.77371597290039 37.751365661621094
C 55.129005432128906 39.174503326416016 36.78472137451172
C 52.93864059448242 38.74604415893555 37.48907470703125
C 54.518104553222656 38.176612854003906 36.01063537597656
C 54.311622619628906 33.57814025878906 36.683265686035156
C 56.00225067138672 38.82526397705078 40.74437713623047
C 52.265106201171875 38.176673889160156 38.62835693359375
C 53.1900749206543 37.96266174316406 36.33363342285156
C 52.41230392456055 37.16682052612305 40.582664489746094
C 54.82928466796875 35.85658264160156 35.255104064941406
C 56.450130462646484 39.00699996948242 37.22235107421875
C 57.87353515625 38.2806282043457 38.7850341796875
C 54.415672302246094 37.41716003417969 41.94738006591797
C 57.05052947998047 37.96356201171875 41.029823303222656
C 55.70629119873047 32.831119537353516 38.23028564453125
C 57.250118255615234 37.99557113647461 36.64518737792969
C 53.50353240966797 35.607364654541016 35.75396728515625
C 54.911319732666016 35.196563720703125 42.10633087158203
C 53.579830169677734 35.32024383544922 41.75202178955078
C 52.088863372802734 34.89958572387695 39.8160400390625
C 52.30245590209961 34.785057067871094 37.473121643066406
C 58.49079132080078 35.5148811340332 38.92932891845703
C 57.86473846435547 35.31709289550781 36.794471740722656
C 52.30908966064453 34.1473503112793 38.652992248535156
C 57.19584655761719 33.744686126708984 39.80567932128906
C 54.244140625 41.513153076171875 39.456642150878906
N 53.9018669128418 42.172576904296875 38.410911560058594
C 53.83408737182617 41.25710678100586 37.27226257324219
H 54.54996109008789 41.68489074707031 36.56573486328125
H 52.86293411254883 41.3425407409668 36.77809143066406
C 55.56212615966797 43.641754150390625 43.172889709472656
C 55.95682144165039 44.023216247558594 41.87956237792969
H 56.431331634521484 44.99230194091797 41.748138427734375
C 55.50817108154297 43.34321594238281 40.74500274658203
H 55.735374450683594 43.82789611816406 39.79894256591797
C 54.6622428894043 42.21240997314453 40.766380310058594
C 54.68109893798828 42.50013732910156 43.20751953125
H 54.18683624267578 42.32958221435547 44.16050720214844
C 54.234066009521484 41.849708557128906 42.02985382080078
H 53.51473617553711 41.034793853759766 42.03730010986328
C 55.98762512207031 44.30005645751953 44.499961853027344
C 56.903350830078125 45.45472717285156 44.366981506347656
C 58.1342658996582 45.61473083496094 43.75367736816406
H 58.66973114013672 44.820098876953125 43.24468994140625
C 58.60283660888672 46.983734130859375 44.03215026855469
H 59.57696533203125 47.403907775878906 43.80467224121094
C 57.614131927490234 47.56909942626953 44.78392028808594
N 56.54051208496094 46.68492889404297 44.973846435546875
H 55.702667236328125 46.87532043457031 45.50665283203125
C 57.637699127197266 48.813758850097656 45.42205047607422
H 58.24142837524414 49.63653564453125 45.041961669921875
C 56.638587951660156 49.235130310058594 46.227142333984375
C 55.857730865478516 50.34038543701172 46.02696990966797
H 56.03421401977539 50.91896057128906 45.12622833251953
C 54.896663665771484 50.40058898925781 46.99641418457031
H 54.161720275878906 51.187652587890625 47.129112243652344
C 55.20832824707031 49.285072326660156 47.847808837890625
N 56.24875259399414 48.55908966064453 47.41741943359375
C 54.51227951049805 48.97908020019531 49.126434326171875
C 54.44635009765625 47.6983642578125 49.66613006591797
C 54.32419967651367 47.17578125 50.99756622314453
H 54.21796798706055 47.84712219238281 51.843292236328125
C 54.314483642578125 45.82483673095703 50.972930908203125
H 54.126739501953125 45.270973205566406 51.88682556152344
C 54.575157165527344 45.3621826171875 49.66425323486328
N 54.63958740234375 46.529945373535156 48.98516082763672
H 55.0418586730957 46.4503173828125 48.061058044433594
C 54.645145416259766 44.08710479736328 49.211265563964844
H 54.57264709472656 43.32482147216797 49.985595703125
C 54.93901443481445 43.656898498535156 47.839027404785156
C 55.176063537597656 42.33661651611328 47.287132263183594
H 55.09474182128906 41.41686248779297 47.85692596435547
C 55.67875671386719 42.48480224609375 46.033775329589844
H 55.935054779052734 41.6431999206543 45.39875793457031
C 55.54362487792969 43.81329345703125 45.722450256347656
N 55.18415832519531 44.492210388183594 46.80384826660156
C 52.9991455078125 52.38275146484375 51.39710235595703
C 52.38020706176758 51.13746643066406 51.56645965576172
H 51.571903228759766 50.961585998535156 52.271644592285156
C 52.846771240234375 50.013641357421875 50.859397888183594
H 52.526611328125 49.01081848144531 51.130340576171875
C 53.93935012817383 50.14720153808594 49.92082214355469
C 54.10017776489258 52.50611114501953 50.578834533691406
H 54.63185501098633 53.45384979248047 50.55287170410156
C 54.557838439941406 51.413734436035156 49.759613037109375
H 55.48503112792969 51.42250061035156 49.19233703613281
N 52.79579162597656 53.39103698730469 52.34239959716797
H 51.935768127441406 53.916236877441406 52.29133605957031
C 53.655181884765625 53.84959411621094 53.227516174316406
O 54.861175537109375 53.542503356933594 53.16203308105469
C 53.110565185546875 54.76036834716797 54.369789123535156
C 51.77814865112305 54.78186798095703 54.68419647216797
H 51.07220458984375 54.30043029785156 54.012306213378906
C 51.29234313964844 55.71302795410156 55.57080078125
C 52.14200973510742 56.641693115234375 56.15826416015625
H 51.607582092285156 57.32940673828125 56.80866241455078
C 53.50434112548828 56.67610168457031 55.853797912597656
H 54.24351501464844 57.385040283203125 56.21795654296875
C 53.93679428100586 55.703277587890625 55.03251647949219
H 54.97267532348633 55.61407470703125 54.71538543701172
C 49.8031005859375 55.842262268066406 55.828277587890625
H 49.22230911254883 55.19221496582031 55.175559997558594
C 49.057884216308594 56.51392364501953 56.76075744628906
H 49.57126235961914 57.135894775390625 57.49253845214844
C 47.61249923706055 56.532447814941406 56.96148681640625
C 46.812538146972656 55.41387939453125 56.503570556640625
H 46.12207794189453 55.586936950683594 55.675453186035156
H 46.1739616394043 55.232940673828125 57.37071990966797
H 47.387657165527344 54.52442169189453 56.23793029785156
C 47.09182357788086 57.592994689941406 57.690940856933594
H 47.804405212402344 58.349525451660156 58.01622009277344
C 45.7496223449707 57.89665985107422 57.92955780029297
H 45.069969177246094 57.193939208984375 57.44977569580078
C 45.29860305786133 58.994415283203125 58.62342834472656
H 46.09335708618164 59.673439025878906 58.928741455078125
C 43.92338180541992 59.48241424560547 58.74620819091797
C 43.76482009887695 60.873985290527344 59.289306640625
H 43.081085205078125 61.359580993652344 58.58991241455078
H 43.27735137939453 61.004676818847656 60.25768280029297
H 44.68254852294922 61.46531677246094 59.31298065185547
C 42.85057830810547 58.72582244873047 58.358070373535156
H 42.95392990112305 57.734046936035156 57.920326232910156
C 41.44375991821289 59.17108917236328 58.34832763671875
H 41.16728973388672 60.191650390625 58.608985900878906
C 40.50519943237305 58.19517517089844 58.19464874267578
H 40.770328521728516 57.140769958496094 58.13251495361328
C 39.09074401855469 58.51947784423828 58.1171875
H 38.84175109863281 59.49048614501953 58.54271697998047
C 38.062721252441406 57.786590576171875 57.70130157470703
C 38.38235092163086 56.48627471923828 56.977386474609375
H 38.352455139160156 55.63652801513672 57.66259002685547
H 37.62009811401367 56.38581848144531 56.201927185058594
H 39.361045837402344 56.530418395996094 56.495018005371094
C 36.64703369140625 58.066192626953125 57.70745086669922
H 36.04879379272461 57.217079162597656 57.38029479980469
C 36.05876922607422 59.22163391113281 58.017547607421875
H 36.77124786376953 60.03511047363281 58.146202087402344
C 34.59674835205078 59.49219512939453 57.895668029785156
H 33.98579025268555 58.862579345703125 57.250511169433594
C 33.92863082885742 60.480926513671875 58.54917907714844
C 34.676971435546875 61.402198791503906 59.453529357910156
H 35.57528305053711 60.87550354003906 59.78228759765625
H 34.98464584350586 62.30377197265625 58.91969299316406
H 33.998382568359375 61.5643310546875 60.29358673095703
C 32.488525390625 60.70775604248047 58.38719177246094
H 32.0290412902832 59.876678466796875 57.85417175292969
C 31.805068969726562 61.73662567138672 58.804412841796875
H 32.34695053100586 62.539207458496094 59.30255889892578
C 30.399211883544922 61.988746643066406 58.72309112548828
C 29.56745147705078 61.74358367919922 59.76649475097656
C 30.018342971801758 60.985008239746094 60.99176025390625
H 30.497756958007812 60.06011199951172 60.66436767578125
H 30.823644638061523 61.460960388183594 61.55516052246094
H 29.18411636352539 60.6458740234375 61.60943603515625
C 28.153972625732422 62.11579895019531 59.88287353515625
H 27.994094848632812 62.389976501464844 60.92772674560547
H 27.522563934326172 61.24998474121094 59.67271423339844
C 27.783313751220703 63.24150848388672 58.915794372558594
H 28.269792556762695 64.15042114257812 59.275909423828125
H 26.713441848754883 63.45582580566406 58.87211608886719
C 28.281164169311523 62.80180358886719 57.50398254394531
H 27.760860443115234 61.86808776855469 57.280517578125
H 27.957046508789062 63.522422790527344 56.750244140625
C 29.797863006591797 62.545654296875 57.41011047363281
C 30.075729370117188 61.687660217285156 56.224815368652344
H 31.11888313293457 61.70747375488281 55.90247344970703
H 29.6853084564209 60.66911315917969 56.275794982910156
H 29.57748031616211 62.225975036621094 55.415855407714844
C 30.436899185180664 63.84962463378906 57.05769348144531
H 29.972986221313477 64.3216781616211 56.189117431640625
H 30.222660064697266 64.59210205078125 57.82923889160156
H 31.519948959350586 63.79768371582031 56.92822265625
