207
Triad, Carotenoid-Porphyrin-C60
C 42.92971420288086 45.86884689331055 48.105072021484375
C 47.3567008972168 50.33583450317383 49.24492645263672
C 47.375885009765625 48.215389251708984 49.88873291015625
C 46.33498764038086 46.115962982177734 49.21214294433594
C 46.28433609008789 51.873226165771484 47.6348876953125
C 46.51395034790039 51.4657096862793 48.9609375
C 47.6559944152832 49.92087173461914 46.94184112548828
C 47.79715347290039 47.24784469604492 47.62242126464844
C 43.854827880859375 45.9654655456543 46.057655334472656
C 46.862876892089844 51.03877639770508 46.61729431152344
C 44.282508850097656 45.407352447509766 48.17882537841797
C 42.89168930053711 51.5899543762207 46.47039031982422
C 44.95537185668945 52.28224563598633 47.524688720703125
C 41.88359451293945 49.43758773803711 45.89429473876953
C 43.417476654052734 47.961116790771484 44.78961181640625
C 42.190799713134766 48.1586799621582 45.46111297607422
C 44.85092544555664 51.21055221557617 45.39360046386719
C 47.50728988647461 48.92875289916992 45.94615936279297
C 47.602760314941406 47.62593460083008 46.257911682128906
C 45.560279846191406 47.27726364135742 44.91850280761719
C 43.56064224243164 48.996578216552734 51.547645568847656
C 43.66114807128906 50.341365814208984 50.87596893310547
C 45.010643005371094 48.54287338256836 51.37299346923828
C 45.784358978271484 49.650447845458984 51.05608367919922
C 41.31931686401367 48.013362884521484 47.54346466064453
C 42.71369552612305 50.838436126708984 49.9453125
C 45.03659439086914 45.68354415893555 49.37467956542969
C 42.39773941040039 51.409603118896484 47.74383544921875
C 44.387569427490234 52.11174392700195 48.77305603027344
C 41.35047912597656 49.35673141479492 47.14105224609375
C 45.37522506713867 47.33872604370117 50.82855987548828
C 43.85565948486328 50.38187789916992 44.813385009765625
C 44.24360275268555 49.038570404052734 44.46698760986328
C 46.552005767822266 46.76487350463867 45.833404541015625
C 46.59199905395508 49.452571868896484 45.008522033691406
C 42.4354248046875 47.99283218383789 51.07627868652344
C 41.650997161865234 48.66425704956055 49.886863708496094
C 43.03752136230469 46.76838302612305 50.34758758544922
C 41.53550338745117 47.663761138916016 48.863182067871094
C 44.23337173461914 46.90909957885742 45.06598663330078
C 44.94843673706055 50.727542877197266 50.71825408935547
C 44.41718673706055 46.443721771240234 50.36149597167969
C 42.37548828125 46.5726203918457 49.15338897705078
C 46.57821273803711 47.11124801635742 50.141204833984375
C 41.85203552246094 47.239986419677734 46.46363830566406
C 41.78232955932617 49.96416091918945 49.39143371582031
C 43.058650970458984 51.72787094116211 48.94059753417969
C 46.931339263916016 49.48627853393555 50.252655029296875
C 45.30229568481445 51.5767936706543 49.66596984863281
C 45.589359283447266 48.60507583618164 44.548866271972656
C 41.6177864074707 50.28962326049805 48.060333251953125
C 42.66030502319336 46.2036247253418 46.764190673828125
C 47.941627502441406 49.61838912963867 48.24401092529297
C 47.96437072753906 48.26670455932617 48.65019989013672
C 46.93947982788086 46.240169525146484 47.95396423339844
C 44.89118957519531 45.50761032104492 46.92713165283203
C 44.248077392578125 51.988712310791016 46.36518859863281
C 42.681007385253906 50.570072174072266 45.55657958984375
C 46.189064025878906 45.89445877075195 46.834266662597656
C 46.169830322265625 50.72157669067383 45.45533752441406
C 43.23278045654297 49.273372650146484 53.02832794189453
N 42.39353942871094 48.4432258605957 53.469947814941406
C 41.617027282714844 47.742130279541016 52.37306213378906
H 40.5647087097168 48.032100677490234 52.3165283203125
H 41.631412506103516 46.660518646240234 52.52979278564453
C 45.767024993896484 51.58304977416992 55.504859924316406
C 45.93378448486328 50.169307708740234 55.43468475341797
H 46.73324966430664 49.76302719116211 56.048980712890625
C 45.185298919677734 49.46042251586914 54.54212188720703
H 45.373802185058594 48.39969253540039 54.39759063720703
C 44.04645538330078 50.05464553833008 53.951881408691406
C 44.63866424560547 52.21037673950195 54.822479248046875
H 44.463348388671875 53.27719497680664 54.935325622558594
C 43.790374755859375 51.41096878051758 54.107452392578125
H 42.96022033691406 51.84566116333008 53.55658721923828
C 46.78624725341797 52.43892288208008 56.268951416015625
C 47.98958206176758 51.800418853759766 56.73883056640625
C 48.237308502197266 51.01723861694336 57.79364013671875
H 47.45414352416992 50.67609786987305 58.46260070800781
C 49.66883087158203 50.919612884521484 57.91358184814453
H 50.239532470703125 50.35348129272461 58.642295837402344
C 50.223690032958984 51.72761917114258 56.982025146484375
N 49.186668395996094 52.20902633666992 56.206871032714844
H 49.27023696899414 52.92975997924805 55.50282287597656
C 51.67569351196289 51.84566879272461 56.697669982910156
H 52.41967010498047 51.146366119384766 57.07635498046875
C 52.21897888183594 52.80210494995117 55.988075256347656
C 53.58921813964844 52.974491119384766 55.7752685546875
H 54.39738845825195 52.31290817260742 56.069183349609375
C 53.69221878051758 54.17753219604492 55.21587371826172
H 54.625850677490234 54.626644134521484 54.89360809326172
C 52.39065933227539 54.68117904663086 54.903785705566406
N 51.483428955078125 53.80624771118164 55.3924560546875
C 51.95695495605469 55.90841293334961 54.19451904296875
C 51.00486373901367 56.78694534301758 54.720375061035156
C 51.00200271606445 58.17900466918945 54.88091278076172
H 51.814876556396484 58.81918716430664 54.55436706542969
C 49.786163330078125 58.5566520690918 55.450157165527344
H 49.38182067871094 59.51346206665039 55.763587951660156
C 48.936405181884766 57.41230392456055 55.556785583496094
N 49.758445739746094 56.397159576416016 55.170867919921875
H 49.369380950927734 55.46414566040039 55.15587615966797
C 47.70170974731445 57.19514083862305 56.10877990722656
H 47.42879104614258 58.155643463134766 56.543365478515625
C 47.02900695800781 55.922489166259766 56.24787902832031
C 45.84709167480469 55.791080474853516 57.011627197265625
H 45.393882751464844 56.624507904052734 57.53814697265625
C 45.69719696044922 54.404109954833984 57.084754943847656
H 44.94563293457031 53.92129898071289 57.700599670410156
C 46.66089630126953 53.82514572143555 56.31385803222656
N 47.46022415161133 54.75175094604492 55.83319091796875
C 53.783390045166016 56.670536041259766 50.40692901611328
C 52.78723907470703 57.53874588012695 50.865013122558594
H 52.545047760009766 58.41788864135742 50.27338409423828
C 52.074241638183594 57.28616714477539 52.091697692871094
H 51.25278854370117 57.91032028198242 52.43406677246094
C 52.40690231323242 56.156803131103516 52.88383483886719
C 54.03867721557617 55.51897048950195 51.03992462158203
H 54.82314682006836 54.8652229309082 50.667381286621094
C 53.3275146484375 55.24119186401367 52.250152587890625
H 53.615726470947266 54.34721755981445 52.7972412109375
N 54.449703216552734 56.8222770690918 49.13227844238281
H 54.51738357543945 55.98954391479492 48.56654357910156
C 54.70954513549805 58.00798416137695 48.462989807128906
O 54.74302291870117 59.06601333618164 49.032920837402344
C 55.112300872802734 57.8908805847168 46.97489929199219
C 54.83632278442383 56.742488861083984 46.297889709472656
H 54.253047943115234 55.935543060302734 46.73400115966797
C 55.32912063598633 56.52143478393555 45.01343536376953
C 56.1822395324707 57.43057632446289 44.391090393066406
H 56.8216667175293 57.075801849365234 43.586830139160156
C 56.465206146240234 58.58613967895508 45.05003356933594
H 57.21945571899414 59.2321891784668 44.608131408691406
C 55.85001754760742 58.86111831665039 46.32115173339844
H 55.93240737915039 59.83035659790039 46.80628967285156
C 55.097896575927734 55.190303802490234 44.396575927734375
H 54.47166061401367 54.56216812133789 45.028404235839844
C 55.520999908447266 54.6830940246582 43.21959686279297
H 56.211788177490234 55.277523040771484 42.623451232910156
C 55.25534439086914 53.35555648803711 42.62934112548828
C 55.49825668334961 53.254642486572266 41.197837829589844
H 54.879764556884766 53.841617584228516 40.515647888183594
H 55.37114334106445 52.27205276489258 40.73869323730469
H 56.57473373413086 53.398868560791016 41.08441162109375
C 54.81845474243164 52.23415756225586 43.2896728515625
H 54.87582015991211 52.424564361572266 44.36036682128906
C 54.513240814208984 50.8632926940918 42.89911651611328
H 54.6252555847168 50.60073471069336 41.84819793701172
C 54.2053337097168 49.868465423583984 43.785377502441406
H 54.211299896240234 50.094966888427734 44.850547790527344
C 53.928340911865234 48.45645523071289 43.496192932128906
C 53.19059371948242 48.20798873901367 42.184906005859375
H 53.85958480834961 48.483516693115234 41.366981506347656
H 52.83456039428711 47.18587875366211 42.03996276855469
H 52.329795837402344 48.86896896362305 42.0640869140625
C 54.04524612426758 47.46415328979492 44.37767028808594
H 54.41501998901367 47.76064682006836 45.358116149902344
C 53.82486343383789 46.01706314086914 44.26658630371094
H 53.77665328979492 45.6116828918457 43.25700378417969
C 53.70504379272461 45.151729583740234 45.36772155761719
H 53.60867691040039 45.54874801635742 46.37718200683594
C 53.381534576416016 43.76213073730469 45.165618896484375
H 53.05859375 43.44145965576172 44.17627716064453
C 53.24367141723633 42.88337707519531 46.157203674316406
C 53.844478607177734 43.05916976928711 47.48216247558594
H 53.7525520324707 42.1684455871582 48.107154846191406
H 54.89950942993164 43.340030670166016 47.459800720214844
H 53.437217712402344 43.90004348754883 48.04743957519531
C 52.499595642089844 41.64520263671875 46.13898468017578
H 52.611000061035156 41.094635009765625 47.071929931640625
C 51.57644271850586 41.1201171875 45.336448669433594
H 51.39727783203125 41.65512466430664 44.404998779296875
C 50.749488830566406 39.94941711425781 45.63873291015625
H 51.27595138549805 39.02914810180664 45.88745880126953
C 49.41249465942383 39.75983810424805 45.42201232910156
C 48.47450256347656 40.75872039794922 44.78759002685547
H 49.101924896240234 41.51106643676758 44.30511474609375
H 47.81538009643555 40.47849655151367 43.96327209472656
H 47.89395523071289 41.197303771972656 45.60188293457031
C 48.756343841552734 38.446754455566406 45.64873504638672
H 49.420536041259766 37.58389663696289 45.63306427001953
C 47.45439147949219 38.075843811035156 45.41969299316406
H 46.774192810058594 38.90822219848633 45.24534606933594
C 46.91537857055664 36.72428512573242 45.252197265625
C 47.10173416137695 35.790260314941406 46.249046325683594
C 47.8546028137207 36.04712677001953 47.49011993408203
H 47.71660232543945 37.07638931274414 47.82781219482422
H 47.472721099853516 35.37366485595703 48.26023864746094
H 48.935543060302734 36.04206848144531 47.335174560546875
C 46.7508659362793 34.27500915527344 46.16790008544922
H 46.008216857910156 34.05719757080078 46.93829345703125
H 47.73116683959961 33.85814666748047 46.40809631347656
C 46.209449768066406 33.8734016418457 44.749107360839844
H 45.72178649902344 32.8963508605957 44.754150390625
H 47.06096267700195 33.65571975708008 44.10102844238281
C 45.31698226928711 35.00873565673828 44.18042755126953
H 44.733245849609375 34.67372131347656 43.32048797607422
H 44.51626968383789 35.220680236816406 44.89204406738281
C 46.10762405395508 36.35188293457031 43.975242614746094
C 47.01898956298828 36.277503967285156 42.75669860839844
H 47.386993408203125 37.28057098388672 42.531105041503906
H 47.91790771484375 35.658382415771484 42.78986358642578
H 46.439117431640625 36.00625991821289 41.872032165527344
C 44.945838928222656 37.298099517822266 43.67975616455078
H 44.3682746887207 37.50611114501953 44.58287048339844
H 45.2806282043457 38.21070861816406 43.18224334716797
H 44.20491027832031 36.751529693603516 43.09260559082031
