207
Triad, Carotenoid-Porphyrin-C60
C 32.62886428833008 55.928897857666016 45.31779479980469
C 36.837215423583984 56.72274398803711 40.301231384277344
C 35.35139846801758 55.09395217895508 40.819000244140625
C 33.3663444519043 54.60264205932617 42.06559753417969
C 36.986351013183594 59.085880279541016 40.96989059448242
C 37.50162124633789 57.74790573120117 41.009254455566406
C 35.058624267578125 58.35927200317383 39.8358039855957
C 33.3423957824707 56.2938117980957 40.34109878540039
C 31.466629028320312 57.41147232055664 44.19038009643555
C 35.76924133300781 59.383419036865234 40.45448303222656
C 32.278228759765625 55.30472183227539 44.11804962158203
C 36.29994201660156 60.40128707885742 44.262603759765625
C 37.39576721191406 59.6218147277832 42.19877624511719
C 34.33246994018555 59.941593170166016 45.53190612792969
C 32.346702575683594 59.69527053833008 44.07086181640625
C 33.02600860595703 59.489864349365234 45.30990982055664
C 35.22829055786133 60.80472946166992 42.3012580871582
C 33.73779296875 58.61854934692383 40.10517883300781
C 32.82121658325195 57.539005279541016 40.332740783691406
C 31.776477813720703 58.81230545043945 42.14212417602539
C 37.21670913696289 54.88089370727539 44.60642623901367
C 37.91059494018555 56.192691802978516 44.2716064453125
C 36.64508819580078 54.51337814331055 43.23692321777344
C 37.22781753540039 55.25692367553711 42.244083404541016
C 34.17270278930664 57.95769119262695 46.43843078613281
C 37.823917388916016 57.38406753540039 44.98920440673828
C 33.178035736083984 54.50497817993164 43.44310760498047
C 37.01960372924805 59.46339797973633 45.012271881103516
C 38.12083053588867 58.68867111206055 42.966522216796875
C 35.047298431396484 59.0437126159668 46.299766540527344
C 35.349117279052734 54.1482048034668 43.05719757080078
C 34.28263854980469 60.88705062866211 43.34897232055664
C 32.99152755737305 60.45279312133789 43.08993148803711
C 31.884220123291016 57.62607192993164 41.36336135864258
C 33.612030029296875 59.74959182739258 40.87651443481445
C 36.1279411315918 55.008358001708984 45.773799896240234
C 35.988525390625 56.425045013427734 46.2121467590332
C 34.678428649902344 54.695316314697266 45.368892669677734
C 34.6364631652832 56.68467330932617 46.40856170654297
C 31.589839935302734 58.66728591918945 43.5491943359375
C 38.00645446777344 56.25873947143555 42.868465423583984
C 34.390953063964844 54.28519821166992 44.050045013427734
C 33.85274124145508 55.666141510009766 45.87818145751953
C 34.70334243774414 54.29096603393555 41.770591735839844
C 32.92869186401367 58.255489349365234 45.926483154296875
C 36.865360260009766 57.498905181884766 45.97271728515625
C 37.93819046020508 58.61967849731445 44.35588836669922
C 36.693214416503906 55.495609283447266 40.98046112060547
C 38.17914581298828 57.51175308227539 42.200294494628906
C 32.70339584350586 59.85733413696289 41.91886520385742
C 36.38716506958008 58.7612190246582 45.98918914794922
C 32.1568717956543 57.18294143676758 45.34849166870117
C 35.597999572753906 57.053462982177734 39.718719482421875
C 34.66923522949219 56.04825210571289 40.06511688232422
C 32.698760986328125 55.55961227416992 41.37449645996094
C 31.59442138671875 56.266971588134766 43.38395309448242
C 36.48434829711914 60.514163970947266 42.85745620727539
C 34.96171188354492 60.61898422241211 44.52702713012695
C 31.789794921875 56.382816314697266 42.00257110595703
C 34.933555603027344 60.21470260620117 41.06502151489258
C 38.202362060546875 53.84634780883789 45.084102630615234
N 37.874961853027344 53.48869705200195 46.30321502685547
C 36.71376037597656 54.093875885009766 46.93244171142578
H 37.100120544433594 54.7085075378418 47.74951934814453
H 36.05058670043945 53.28959274291992 47.26104736328125
C 40.73752212524414 51.50703048706055 42.46319580078125
C 40.93021011352539 52.8527717590332 42.7048225402832
H 41.74386215209961 53.37424087524414 42.20722961425781
C 40.06416702270508 53.631839752197266 43.51459884643555
H 40.199562072753906 54.6981086730957 43.6767578125
C 39.076385498046875 53.02577590942383 44.175514221191406
C 39.69560241699219 50.85006332397461 43.138431549072266
H 39.58842849731445 49.77031326293945 43.07344436645508
C 38.901668548583984 51.62880325317383 44.05097961425781
H 38.17134475708008 51.16817092895508 44.7112922668457
C 41.69972229003906 50.68645095825195 41.65879821777344
C 42.944942474365234 51.35897445678711 41.32756423950195
C 43.195343017578125 52.30342483520508 40.417179107666016
H 42.52489471435547 52.78969955444336 39.71627426147461
C 44.593685150146484 52.54169845581055 40.392303466796875
H 45.20815658569336 53.2978630065918 39.914947509765625
C 45.09379196166992 51.4921989440918 41.128746032714844
N 44.12108612060547 50.8925666809082 41.78173828125
H 44.15835189819336 50.03835678100586 42.32123565673828
C 46.482635498046875 51.139888763427734 41.11797332763672
H 47.0704460144043 51.91207504272461 40.623878479003906
C 47.06196594238281 49.98447799682617 41.56450271606445
C 47.9204216003418 50.080265045166016 42.67599105834961
H 48.17909622192383 51.03274154663086 43.12665939331055
C 48.09894561767578 48.790706634521484 43.09511947631836
H 48.67329406738281 48.34821701049805 43.902305603027344
C 47.3098258972168 47.95637130737305 42.12856674194336
N 46.722900390625 48.68984603881836 41.193870544433594
C 47.17326736450195 46.453609466552734 42.1495361328125
C 46.0126953125 45.874149322509766 41.60289001464844
C 45.90483856201172 44.69723129272461 40.75022506713867
H 46.72835159301758 44.03323745727539 40.50905990600586
C 44.628299713134766 44.614681243896484 40.25483322143555
H 44.207672119140625 43.91880416870117 39.536460876464844
C 43.850799560546875 45.71855545043945 40.72559356689453
N 44.77238464355469 46.43436813354492 41.443443298339844
H 44.56626510620117 47.38862228393555 41.70619201660156
C 42.499473571777344 46.04758071899414 40.508888244628906
H 41.90045166015625 45.34524917602539 39.931114196777344
C 41.74748229980469 47.27937698364258 40.79505920410156
C 40.41603088378906 47.671566009521484 40.46586608886719
H 39.73042297363281 47.04853439331055 39.90106201171875
C 40.2956428527832 49.00802993774414 40.80771255493164
H 39.48421096801758 49.695072174072266 40.59144592285156
C 41.4758186340332 49.35286331176758 41.33734130859375
N 42.28084945678711 48.35495376586914 41.31377410888672
C 50.15350341796875 43.83713912963867 44.13142013549805
C 48.825645446777344 43.47378158569336 43.84367370605469
H 48.54880905151367 42.46245193481445 44.13029479980469
C 47.92450714111328 44.27707290649414 43.218746185302734
H 46.92782211303711 43.891963958740234 43.01902389526367
C 48.22149658203125 45.558040618896484 42.88771057128906
C 50.56871032714844 45.11870193481445 43.744991302490234
H 51.588905334472656 45.46207046508789 43.89618682861328
C 49.566741943359375 45.97756576538086 43.15766143798828
H 49.92552947998047 46.924922943115234 42.763511657714844
N 50.979496002197266 42.8809928894043 44.736968994140625
H 50.84908676147461 41.92344284057617 44.44683074951172
C 51.893218994140625 43.048709869384766 45.78969192504883
O 52.23283004760742 44.213932037353516 46.02470016479492
C 52.394317626953125 41.84104537963867 46.44883346557617
C 53.52900695800781 42.00484848022461 47.306602478027344
H 54.06909942626953 42.93952560424805 47.434120178222656
C 54.10511779785156 40.90919876098633 47.85005569458008
C 53.593353271484375 39.5943717956543 47.60017395019531
H 53.97804260253906 38.7567024230957 48.1762809753418
C 52.434906005859375 39.463130950927734 46.8022575378418
H 52.065677642822266 38.443172454833984 46.7321891784668
C 51.841209411621094 40.56901168823242 46.208534240722656
H 50.93473815917969 40.49714279174805 45.61295700073242
C 55.30392837524414 41.17411422729492 48.726646423339844
H 55.4860954284668 42.22946548461914 48.924049377441406
C 56.124149322509766 40.3604850769043 49.36003494262695
H 56.15142822265625 39.28010177612305 49.2260856628418
C 57.180267333984375 40.578792572021484 50.38503646850586
C 57.880104064941406 39.25715255737305 50.8221321105957
H 58.13386535644531 38.6955451965332 49.920658111572266
H 57.35515594482422 38.51213455200195 51.42366027832031
H 58.88170623779297 39.34587478637695 51.24802780151367
C 57.604896545410156 41.78348159790039 50.88556671142578
H 57.11908721923828 42.64778518676758 50.435115814208984
C 58.54853057861328 42.04314041137695 51.979740142822266
H 58.924652099609375 41.12118911743164 52.420719146728516
C 58.83509826660156 43.28017044067383 52.381591796875
H 58.52693176269531 44.047359466552734 51.67280960083008
C 59.70746612548828 43.6243782043457 53.455528259277344
C 60.034751892089844 45.076541900634766 53.58272171020508
H 59.52983093261719 45.65670394897461 52.80752944946289
H 59.516029357910156 45.478878021240234 54.45537567138672
H 61.10417938232422 45.297428131103516 53.583351135253906
C 60.12395477294922 42.707698822021484 54.380287170410156
H 59.856903076171875 41.66081619262695 54.2437744140625
C 60.931739807128906 42.83286666870117 55.563385009765625
H 61.31230926513672 43.844356536865234 55.697444915771484
C 61.35606384277344 41.77151107788086 56.319252014160156
H 60.923583984375 40.81148910522461 56.041316986083984
C 62.304710388183594 41.956668853759766 57.424713134765625
H 62.590476989746094 42.9613151550293 57.73284149169922
C 62.969261169433594 41.038326263427734 58.145782470703125
C 62.70606231689453 39.59994888305664 57.876617431640625
H 62.79071044921875 39.40351486206055 56.80577087402344
H 63.417335510253906 38.99174118041992 58.4393196105957
H 61.766441345214844 39.202396392822266 58.265869140625
C 63.83545684814453 41.298831939697266 59.276485443115234
H 64.56097412109375 40.56193923950195 59.617855072021484
C 63.87993621826172 42.46884536743164 60.01207733154297
H 63.17340087890625 43.2719612121582 59.8077507019043
C 64.7653579711914 42.665042877197266 61.18947982788086
H 65.54159545898438 41.91025161743164 61.306392669677734
C 64.56910705566406 43.53325271606445 62.20808029174805
C 63.38398742675781 44.42168045043945 62.210662841796875
H 63.386375427246094 44.89358139038086 63.19542694091797
H 63.45830535888672 45.19119644165039 61.43943405151367
H 62.446266174316406 43.875606536865234 62.08842849731445
C 65.60702514648438 43.70131301879883 63.23467254638672
H 65.90001678466797 44.74155044555664 63.3687629699707
C 66.30390167236328 42.75999069213867 63.83855438232422
H 66.10491943359375 41.70619583129883 63.64925765991211
C 67.4753189086914 43.016422271728516 64.7105712890625
C 67.34204864501953 43.620784759521484 65.88357543945312
C 66.04316711425781 44.181697845458984 66.40547180175781
H 65.19099426269531 43.7375602722168 65.88682556152344
H 65.76205444335938 43.925350189208984 67.4290542602539
H 65.9326400756836 45.2597541809082 66.27114868164062
C 68.46043395996094 43.87648391723633 66.90619659423828
H 68.27933502197266 43.16193771362305 67.71186065673828
H 68.16040802001953 44.8564567565918 67.28318786621094
C 69.84241485595703 43.99635696411133 66.28594970703125
H 70.59822845458984 43.95510482788086 67.07303619384766
H 69.89606475830078 44.955440521240234 65.76658630371094
C 70.0488052368164 42.87710952758789 65.20111846923828
H 71.03279876708984 42.97799301147461 64.73845672607422
H 70.13208770751953 41.95012283325195 65.77227020263672
C 68.91674041748047 42.69303512573242 64.13053131103516
C 69.10675048828125 43.67648696899414 62.98740768432617
H 68.25469970703125 43.68107986450195 62.30442810058594
H 69.19402313232422 44.66917037963867 63.43397521972656
H 70.05343627929688 43.47323989868164 62.48251724243164
C 69.00879669189453 41.28591537475586 63.560203552246094
H 68.265380859375 40.947200775146484 62.83558654785156
H 69.91071319580078 41.08688735961914 62.97761535644531
H 68.96052551269531 40.46475601196289 64.2784194946289
