207
Triad, Carotenoid-Porphyrin-C60
C 67.81205749511719 44.470333099365234 51.23212814331055
C 64.47354888916016 46.06580352783203 45.909751892089844
C 65.01428985595703 47.382102966308594 47.64592742919922
C 66.67257690429688 47.33850860595703 49.440269470214844
C 65.1993637084961 44.053096771240234 44.82175064086914
C 64.21936798095703 44.77920913696289 45.49734115600586
C 66.76050567626953 45.85599899291992 44.98649597167969
C 67.3857421875 47.47002029418945 47.16205978393555
C 69.52128601074219 44.565406799316406 49.76693344116211
C 66.45137023925781 44.60287857055664 44.56206130981445
C 67.93343353271484 45.81271743774414 50.81156539916992
C 66.32622528076172 41.09272766113281 46.53175354003906
C 65.01990509033203 42.727420806884766 45.180198669433594
C 67.8817367553711 41.188716888427734 48.3758659362793
C 69.5948486328125 42.80573272705078 48.140380859375
C 68.80249786376953 42.05995178222656 48.98301315307617
C 67.43692016601562 42.484127044677734 45.22623062133789
C 68.05648803710938 45.93568801879883 45.47940444946289
C 68.4416732788086 46.781795501708984 46.52983093261719
C 69.770263671875 44.91965103149414 47.449134826660156
C 63.17710876464844 44.42801284790039 49.997962951660156
C 63.05236053466797 43.57991409301758 48.67546844482422
C 63.5709228515625 45.8054313659668 49.41749954223633
C 63.352073669433594 45.76655197143555 48.03913879394531
C 67.13861083984375 41.921348571777344 50.31771469116211
C 63.640689849853516 42.29924392700195 48.543277740478516
C 66.74588775634766 46.521728515625 50.59357833862305
C 65.25402069091797 41.01466369628906 47.454105377197266
C 64.01972198486328 42.68328857421875 46.198360443115234
C 66.81843566894531 41.08977127075195 49.23621368408203
C 64.57137298583984 46.57381057739258 49.926551818847656
C 68.3017578125 41.95692443847656 46.22174072265625
C 69.418212890625 42.780738830566406 46.727821350097656
C 69.27182006835938 46.19654083251953 47.5324592590332
C 68.5416030883789 44.661766052246094 45.438175201416016
C 64.18194580078125 43.90250778198242 51.03349304199219
C 64.88416290283203 42.577186584472656 50.60305404663086
C 65.37586212158203 44.810447692871094 51.3173713684082
C 66.19861602783203 42.67293930053711 50.97802734375
C 69.84073638916016 44.09564208984375 48.549076080322266
C 63.04353713989258 44.39237976074219 47.61308670043945
C 65.4813003540039 46.05667495727539 50.9200553894043
C 66.52078247070312 43.947509765625 51.42422103881836
C 65.35210418701172 47.349151611328125 49.04903030395508
C 68.45829010009766 42.39079666137695 50.244728088378906
C 64.56525421142578 41.83818054199219 49.453243255615234
C 64.14582824707031 41.85261917114258 47.30991744995117
C 64.00910186767578 46.58399200439453 47.139034271240234
C 63.48649597167969 43.954444885253906 46.35694122314453
C 69.43671417236328 44.14403533935547 46.37276840209961
C 65.49504852294922 41.041290283203125 48.85321044921875
C 68.7688980102539 43.68828201293945 50.61779022216797
C 65.77880096435547 46.6042594909668 45.6606559753418
C 66.08210754394531 47.424835205078125 46.740318298339844
C 67.67639923095703 47.435272216796875 48.557952880859375
C 68.97212219238281 45.86284255981445 49.88234329223633
C 66.18451690673828 41.940738677978516 45.428585052490234
C 67.598388671875 41.15202331542969 47.02256774902344
C 68.84077453613281 46.69682693481445 48.76646041870117
C 67.57756805419922 43.829586029052734 44.85051727294922
C 61.91025924682617 44.46453857421875 50.83451461791992
N 61.98464584350586 44.156715393066406 52.077579498291016
C 63.393699645996094 43.64818572998047 52.330299377441406
H 63.193912506103516 42.61701583862305 52.632667541503906
H 63.86623764038086 44.06618881225586 53.22283935546875
C 58.16773986816406 46.300960540771484 49.35429382324219
C 58.645286560058594 45.073890686035156 48.82611846923828
H 58.068580627441406 44.64931869506836 48.008365631103516
C 59.84996795654297 44.471336364746094 49.292564392089844
H 60.19132995605469 43.51289749145508 48.909889221191406
C 60.61507034301758 45.06345748901367 50.310977935791016
C 58.93461227416992 46.8821907043457 50.42356491088867
H 58.61668014526367 47.78373336791992 50.94096755981445
C 60.1223030090332 46.200828552246094 50.8640022277832
H 60.68842697143555 46.667903900146484 51.66581726074219
C 56.91434097290039 46.95124435424805 48.89900588989258
C 56.161014556884766 46.30971145629883 47.84041976928711
C 56.56035232543945 45.908477783203125 46.62221908569336
H 57.57754135131836 45.92235565185547 46.24490737915039
C 55.35042190551758 45.199363708496094 46.142608642578125
H 55.366878509521484 44.68938064575195 45.18507385253906
C 54.279720306396484 45.428245544433594 46.91917037963867
N 54.79488754272461 46.016029357910156 48.01841735839844
H 54.3670654296875 46.02562713623047 48.93438720703125
C 52.92036819458008 44.98403549194336 46.79871368408203
H 52.80869674682617 44.35795593261719 45.914703369140625
C 51.92453384399414 44.91337203979492 47.75413513183594
C 51.3494873046875 43.72098922729492 48.25830841064453
H 51.68263626098633 42.765830993652344 47.86599349975586
C 50.610198974609375 44.062435150146484 49.325748443603516
H 50.172523498535156 43.3558464050293 50.023170471191406
C 50.70384979248047 45.48631286621094 49.42815399169922
N 51.487178802490234 46.03432846069336 48.438419342041016
C 50.21797561645508 46.436492919921875 50.46132278442383
C 50.93639373779297 47.51931381225586 50.98634719848633
C 50.30400085449219 48.76569366455078 51.27773666381836
H 49.22953796386719 48.89973068237305 51.20854949951172
C 51.30329132080078 49.70387268066406 51.59210205078125
H 51.153072357177734 50.679866790771484 52.041648864746094
C 52.58613204956055 49.16345977783203 51.36106872558594
N 52.266326904296875 47.87432098388672 51.06835174560547
H 53.004085540771484 47.19347381591797 50.948848724365234
C 53.823020935058594 49.795833587646484 51.30915451049805
H 53.77454376220703 50.868045806884766 51.493377685546875
C 55.052635192871094 49.30843734741211 50.78476333618164
C 56.13246536254883 50.105587005615234 50.34413528442383
H 56.18310546875 51.17654800415039 50.51058578491211
C 56.95112228393555 49.28034210205078 49.56153106689453
H 57.88267135620117 49.61553192138672 49.11758041381836
C 56.404930114746094 48.03678512573242 49.61122131347656
N 55.27601623535156 48.06148147583008 50.38444900512695
C 46.290557861328125 45.69615173339844 52.04037857055664
C 47.166316986083984 46.47227478027344 52.74359130859375
H 46.74595642089844 46.967830657958984 53.61496353149414
C 48.460662841796875 46.71873474121094 52.31362533569336
H 49.21630859375 47.31684494018555 52.81644821166992
C 48.902313232421875 46.03678512573242 51.14734649658203
C 46.72002029418945 44.89644241333008 50.99748229980469
H 46.0201530456543 44.1656379699707 50.60039138793945
C 48.04636764526367 45.136817932128906 50.49810028076172
H 48.34450149536133 44.647823333740234 49.57421112060547
N 44.920875549316406 45.679325103759766 52.389408111572266
H 44.32697677612305 45.886741638183594 51.600521087646484
C 44.39150619506836 45.32130432128906 53.60996627807617
O 45.103755950927734 45.05363082885742 54.586456298828125
C 42.91022872924805 45.31415557861328 53.761539459228516
C 42.120243072509766 46.28666305541992 53.153900146484375
H 42.572410583496094 47.01799011230469 52.488861083984375
C 40.735374450683594 46.25790023803711 53.246734619140625
C 40.09402084350586 45.32441711425781 54.04750442504883
H 39.0077018737793 45.35902404785156 54.0642204284668
C 40.90983200073242 44.43482971191406 54.78919219970703
H 40.50078201293945 43.6671142578125 55.44100570678711
C 42.24064636230469 44.40780258178711 54.572784423828125
H 42.85009002685547 43.63921356201172 55.04121780395508
C 39.881290435791016 47.25536346435547 52.55060577392578
H 40.460819244384766 48.01786804199219 52.03228759765625
C 38.506134033203125 47.45903015136719 52.54655456542969
H 37.889286041259766 46.733924865722656 53.07536697387695
C 37.8055419921875 48.47412872314453 51.833255767822266
C 38.55918884277344 49.74026107788086 51.4359245300293
H 38.021183013916016 50.54658889770508 50.93307876586914
H 39.40097427368164 49.46836853027344 50.7956657409668
H 39.070274353027344 50.14011764526367 52.31419372558594
C 36.48896026611328 48.34779739379883 51.714080810546875
H 36.03230667114258 47.480445861816406 52.18852233886719
C 35.53874588012695 49.2681884765625 51.05934524536133
H 36.001277923583984 50.17794418334961 50.679443359375
C 34.255123138427734 48.87174987792969 50.81414031982422
H 33.94820785522461 47.92578125 51.257843017578125
C 33.34684371948242 49.6619987487793 49.992401123046875
C 32.56910705566406 48.97617721557617 48.96698760986328
H 32.877716064453125 49.292301177978516 47.968345642089844
H 32.829200744628906 47.91633987426758 49.00646209716797
H 31.543792724609375 49.04710388183594 49.335994720458984
C 33.35540008544922 50.92877960205078 49.975868225097656
H 34.0773811340332 51.44983673095703 50.60289764404297
C 32.54249954223633 51.853172302246094 49.1378059387207
H 31.853456497192383 51.44883728027344 48.39777374267578
C 32.72564697265625 53.1467170715332 49.10880661010742
H 33.38500213623047 53.650455474853516 49.8140869140625
C 31.866270065307617 54.05299758911133 48.365726470947266
H 31.20674705505371 53.511898040771484 47.6888542175293
C 31.74595069885254 55.40140151977539 48.455284118652344
C 32.326988220214844 56.173675537109375 49.577754974365234
H 31.70326042175293 56.9449462890625 50.03444290161133
H 32.63785171508789 55.450138092041016 50.33427429199219
H 33.22769546508789 56.657691955566406 49.1944580078125
C 30.80660629272461 56.13842010498047 47.645042419433594
H 30.668413162231445 57.183753967285156 47.91726303100586
C 30.098180770874023 55.62552261352539 46.643775939941406
H 30.1894474029541 54.568824768066406 46.39683532714844
C 28.996036529541016 56.33787536621094 45.96582794189453
H 29.036500930786133 57.37989044189453 46.27967071533203
C 28.15097999572754 55.99310302734375 45.000030517578125
C 28.23124122619629 54.654624938964844 44.42378616333008
H 28.277379989624023 53.880950927734375 45.193050384521484
H 27.29192543029785 54.30782699584961 43.988033294677734
H 29.055543899536133 54.521873474121094 43.7199592590332
C 27.06946563720703 56.87083435058594 44.48599624633789
H 26.504919052124023 56.439300537109375 43.66077423095703
C 26.875009536743164 58.16937255859375 44.8321533203125
H 27.460206985473633 58.628082275390625 45.6277961730957
C 25.95827293395996 59.119422912597656 44.28440475463867
C 24.716135025024414 58.840003967285156 43.842037200927734
C 24.021337509155273 57.53094482421875 44.0577392578125
H 24.2482967376709 56.87873840332031 43.21181869506836
H 24.460256576538086 57.06043243408203 44.940025329589844
H 22.94536781311035 57.69786834716797 44.140785217285156
C 23.791704177856445 59.853431701660156 43.2404899597168
H 22.788522720336914 59.73078918457031 43.65406799316406
H 23.781856536865234 59.463218688964844 42.22063446044922
C 24.18910026550293 61.325401306152344 43.402774810791016
H 23.90085220336914 61.74046325683594 44.37081527709961
H 23.594209671020508 61.92622375488281 42.711708068847656
C 25.668991088867188 61.35821533203125 43.0477180480957
H 25.911582946777344 60.79612731933594 42.143463134765625
H 26.09078025817871 62.33788299560547 42.81360626220703
C 26.51607894897461 60.572906494140625 44.05001449584961
C 27.931644439697266 60.65838623046875 43.549686431884766
H 28.582042694091797 60.206993103027344 44.30180740356445
H 27.933879852294922 60.04924011230469 42.643375396728516
H 28.154909133911133 61.63996124267578 43.1264533996582
C 26.46291160583496 61.47261047363281 45.33692169189453
H 26.65719985961914 62.50080108642578 45.024635314941406
H 25.47979736328125 61.42387390136719 45.80976104736328
H 27.16798210144043 61.15599060058594 46.10834503173828
