207
Triad, Carotenoid-Porphyrin-C60
C 65.31990814208984 40.938941955566406 43.5250244140625
C 61.01741027832031 45.57626724243164 45.05476379394531
C 63.279296875 45.43605422973633 45.46340560913086
C 65.24916076660156 44.267086029052734 44.68721008300781
C 59.39579772949219 44.57051086425781 43.50918197631836
C 59.89202880859375 44.78849792480469 44.80389404296875
C 61.23314666748047 45.90288543701172 42.64546585083008
C 63.980812072753906 45.698394775390625 43.22435760498047
C 65.09224700927734 41.92605972290039 41.530357360839844
C 60.125457763671875 45.102203369140625 42.37831115722656
C 65.860107421875 42.2452392578125 43.603755950927734
C 59.51219177246094 41.215023040771484 42.36195373535156
C 58.925506591796875 43.286773681640625 43.356143951416016
C 61.45232391357422 40.103660583496094 41.617000579833984
C 63.00401306152344 41.59507369995117 40.364112854003906
C 62.72587585449219 40.40386199951172 41.07319259643555
C 59.860572814941406 43.10090637207031 41.150482177734375
C 62.11322021484375 45.64673614501953 41.658668518066406
C 63.49876403808594 45.531375885009766 41.95707702636719
C 63.79882049560547 43.696495056152344 40.43706512451172
C 62.338722229003906 41.59809112548828 47.2314453125
C 60.96088409423828 41.82333755493164 46.55802917480469
C 62.803245544433594 43.000789642333984 46.915443420410156
C 61.75519561767578 43.86830139160156 46.63188934326172
C 63.03180694580078 39.45494079589844 43.06599807739258
C 60.40582275390625 40.890785217285156 45.66456604003906
C 65.5801010131836 42.95310974121094 44.777252197265625
C 59.69230651855469 40.61930847167969 43.58779525756836
C 59.0794677734375 42.63496780395508 44.570167541503906
C 61.666969299316406 39.475955963134766 42.7697639465332
C 64.05384826660156 43.328609466552734 46.377899169921875
C 60.6922607421875 42.12868118286133 40.64928436279297
C 61.95408630371094 42.43832778930664 40.09592056274414
C 64.3267593383789 44.60951232910156 41.36172866821289
C 61.636688232421875 44.66888427734375 40.814292907714844
C 63.239479064941406 40.52373504638672 46.575157165527344
C 62.58740997314453 39.79830551147461 45.427223205566406
C 64.50137329101562 41.077884674072266 45.82659149169922
C 63.46990966796875 39.64363479614258 44.375274658203125
C 64.17664337158203 42.319923400878906 40.56883239746094
C 60.598480224609375 43.14061737060547 46.4017448425293
C 64.86735534667969 42.377540588378906 45.83627700805664
C 64.63858795166016 40.37251281738281 44.65871047973633
C 64.29676055908203 44.512027740478516 45.65266036987305
C 63.69757080078125 39.991180419921875 42.0211296081543
C 61.25730895996094 39.96261215209961 45.092044830322266
C 59.464332580566406 41.28702926635742 44.73761749267578
C 61.97779846191406 45.07477569580078 45.916996002197266
C 59.69367980957031 43.57677459716797 45.44163513183594
C 62.44673156738281 43.73411178588867 40.218170166015625
C 60.785560607910156 39.79216003417969 43.78065490722656
C 64.81661987304688 40.75722122192383 42.26972579956055
C 61.71539306640625 46.138763427734375 43.94160842895508
C 63.074310302734375 46.06351089477539 44.24882888793945
C 65.08613586425781 44.914093017578125 43.47408676147461
C 65.66608428955078 42.827545166015625 42.378170013427734
C 59.105072021484375 42.54098892211914 42.19118881225586
C 60.460838317871094 40.972564697265625 41.335391998291016
C 65.26348114013672 44.2059440612793 42.27497482299805
C 60.34388732910156 44.37247848510742 41.269535064697266
C 62.34563446044922 41.1086311340332 48.65468215942383
N 63.0089111328125 40.05034255981445 48.92076110839844
C 63.67822265625 39.52565002441406 47.66072463989258
H 63.29420471191406 38.52408981323242 47.45083236694336
H 64.76841735839844 39.4902229309082 47.73048782348633
C 60.043701171875 43.08382034301758 51.82037353515625
C 60.76396179199219 43.820133209228516 50.86069869995117
H 60.828758239746094 44.9039192199707 50.91337585449219
C 61.494712829589844 43.11008071899414 49.81260299682617
H 61.9671630859375 43.68061065673828 49.0170783996582
C 61.520477294921875 41.7544059753418 49.74428176879883
C 60.040550231933594 41.64960861206055 51.724708557128906
H 59.45630645751953 41.02488327026367 52.39548110961914
C 60.829612731933594 41.03235626220703 50.74029541015625
H 60.965362548828125 39.95458984375 50.70077896118164
C 59.268455505371094 43.83454513549805 52.92075729370117
C 59.332130432128906 45.292625427246094 53.00708770751953
C 60.355567932128906 46.18874740600586 53.19129180908203
H 61.40629577636719 45.919368743896484 53.21662521362305
C 59.77986145019531 47.48350524902344 52.98455047607422
H 60.334075927734375 48.40779495239258 52.858970642089844
C 58.39611053466797 47.33378982543945 53.12104797363281
N 58.17274475097656 45.967857360839844 52.99201202392578
H 57.28446960449219 45.51399230957031 52.82741165161133
C 57.26383972167969 48.31267166137695 53.073089599609375
H 57.49298095703125 49.36360168457031 52.90291213989258
C 55.950645446777344 48.0762939453125 53.34272003173828
C 55.02873992919922 48.977115631103516 52.77879333496094
H 55.209571838378906 49.7946891784668 52.08879470825195
C 53.86206817626953 48.52161407470703 53.24408721923828
H 52.917274475097656 48.91459274291992 52.883304595947266
C 54.044639587402344 47.347991943359375 54.09351348876953
N 55.36779022216797 47.074134826660156 54.112728118896484
C 53.12714385986328 46.41819763183594 54.891761779785156
C 53.44841766357422 45.19594192504883 55.37123489379883
C 52.91056823730469 44.4865608215332 56.50351333618164
H 52.05411148071289 44.836456298828125 57.07033157348633
C 53.79029083251953 43.50971603393555 56.94540786743164
H 53.84254455566406 43.13568878173828 57.96255874633789
C 54.87364959716797 43.42430877685547 56.06856155395508
N 54.62158966064453 44.41460418701172 55.18812561035156
H 55.21826171875 44.57347869873047 54.38758850097656
C 55.92121124267578 42.64276123046875 56.21506881713867
H 55.83643341064453 41.9577522277832 57.0573844909668
C 57.13031005859375 42.62534713745117 55.44684600830078
C 58.32746124267578 41.81904983520508 55.56956481933594
H 58.44804382324219 41.088783264160156 56.36290740966797
C 59.203697204589844 42.175262451171875 54.59992218017578
H 60.219215393066406 41.80597686767578 54.502079010009766
C 58.58800506591797 43.15960693359375 53.877811431884766
N 57.351165771484375 43.451541900634766 54.35186004638672
C 49.013450622558594 47.71943283081055 55.54784393310547
C 49.30611038208008 46.359561920166016 55.28848648071289
H 48.43134689331055 45.71746063232422 55.2247314453125
C 50.62643051147461 45.95687484741211 55.126136779785156
H 50.78443145751953 44.91189956665039 54.87192153930664
C 51.71763229370117 46.85163497924805 55.12864303588867
C 50.04640579223633 48.615623474121094 55.545989990234375
H 49.92042541503906 49.694217681884766 55.5942268371582
C 51.35512161254883 48.22971725463867 55.23484802246094
H 52.190059661865234 48.91469955444336 55.11138153076172
N 47.736087799072266 48.242103576660156 55.73238754272461
H 47.567909240722656 48.56766128540039 56.67250061035156
C 46.72737503051758 48.18644332885742 54.80162048339844
O 46.95464324951172 47.76236343383789 53.710018157958984
C 45.41423797607422 48.94862747192383 55.00792694091797
C 44.543373107910156 49.18690872192383 53.981956481933594
H 44.85552978515625 48.84546661376953 52.99831771850586
C 43.31467056274414 49.795372009277344 54.2044792175293
C 42.984413146972656 50.26226043701172 55.44658279418945
H 42.020626068115234 50.6942253112793 55.70366668701172
C 43.88713073730469 49.982051849365234 56.51448059082031
H 43.601619720458984 50.36225128173828 57.49197769165039
C 45.00040817260742 49.179325103759766 56.29079818725586
H 45.582218170166016 48.85150909423828 57.14847183227539
C 42.38121795654297 50.00171661376953 53.0550651550293
H 42.6524543762207 49.497398376464844 52.1287727355957
C 41.14885330200195 50.611392974853516 53.024497985839844
H 40.79808044433594 51.060394287109375 53.95254898071289
C 40.205020904541016 50.69329071044922 51.933868408203125
C 40.420310974121094 49.778465270996094 50.79286575317383
H 40.843990325927734 50.355499267578125 49.96825408935547
H 39.519832611083984 49.303890228271484 50.39741134643555
H 41.01799774169922 48.902503967285156 51.05348205566406
C 39.170745849609375 51.52090072631836 51.94679260253906
H 39.0089225769043 52.034725189208984 52.893218994140625
C 38.1750373840332 51.81595230102539 50.911685943603516
H 38.39097213745117 51.345149993896484 49.9537467956543
C 37.110809326171875 52.659568786621094 51.10035705566406
H 37.0014762878418 53.12884521484375 52.07695770263672
C 35.94110107421875 52.81248092651367 50.23551559448242
C 36.160709381103516 52.395751953125 48.830257415771484
H 35.31778335571289 51.9392204284668 48.30726623535156
H 36.45770263671875 53.27608108520508 48.25641632080078
H 36.916236877441406 51.622215270996094 48.67768096923828
C 34.889373779296875 53.52039337158203 50.593204498291016
H 34.83085250854492 53.8912467956543 51.615440368652344
C 33.84148025512695 54.013553619384766 49.693115234375
H 33.84555435180664 53.636112213134766 48.6716194152832
C 32.92228317260742 54.93415069580078 50.04243850708008
H 32.989078521728516 55.31920623779297 51.05889892578125
C 31.779102325439453 55.39376449584961 49.20716094970703
H 31.822914123535156 55.1067008972168 48.157588958740234
C 30.763431549072266 56.22174835205078 49.46430587768555
C 30.581459045410156 56.68682861328125 50.853843688964844
H 30.316085815429688 55.85806655883789 51.513526916503906
H 31.40643310546875 57.24179458618164 51.305389404296875
H 29.70484161376953 57.328857421875 50.96249771118164
C 29.843990325927734 56.73613357543945 48.52544403076172
H 28.88426971435547 57.02974319458008 48.948116302490234
C 30.01165008544922 56.9260368347168 47.213706970214844
H 30.974857330322266 56.64213943481445 46.792335510253906
C 28.98495101928711 57.561279296875 46.38759994506836
H 27.99713134765625 57.522552490234375 46.84436798095703
C 29.08779525756836 58.4492073059082 45.35829544067383
C 30.342350006103516 58.61423873901367 44.578067779541016
H 31.218631744384766 58.199562072753906 45.080692291259766
H 30.295948028564453 58.01710891723633 43.66497039794922
H 30.555500030517578 59.608280181884766 44.179439544677734
C 28.00444793701172 59.23211669921875 44.837364196777344
H 28.126937866210938 59.61314010620117 43.82457733154297
C 26.95241928100586 59.712562561035156 45.55625915527344
H 26.88812255859375 59.545536041259766 46.63045120239258
C 25.879589080810547 60.614322662353516 45.01181411743164
C 24.829647064208984 60.106807708740234 44.286376953125
C 24.556533813476562 58.69314956665039 43.96562957763672
H 23.58454132080078 58.50743103027344 44.42737579345703
H 24.266490936279297 58.55177688598633 42.92238998413086
H 25.296550750732422 57.97755432128906 44.329994201660156
C 23.69533920288086 60.980098724365234 43.82558822631836
H 22.821056365966797 60.93021774291992 44.47797775268555
H 23.52416229248047 60.594303131103516 42.818450927734375
C 24.08712387084961 62.47853088378906 43.67815017700195
H 23.226078033447266 63.11284255981445 43.45741653442383
H 24.77822494506836 62.55288314819336 42.835941314697266
C 24.718509674072266 62.93602752685547 45.01357650756836
H 24.892757415771484 64.0136489868164 44.98445129394531
H 24.03137969970703 62.75758743286133 45.843318939208984
C 26.01819610595703 62.157745361328125 45.26762390136719
C 27.155929565429688 62.83867645263672 44.4766731262207
H 28.122940063476562 62.563560485839844 44.90288162231445
H 27.092449188232422 62.52157211303711 43.433658599853516
H 27.091808319091797 63.92780685424805 44.523033142089844
C 26.34579849243164 62.63235855102539 46.65973663330078
H 26.32706069946289 63.72026824951172 46.75227737426758
H 25.605789184570312 62.26205825805664 47.37228775024414
H 27.347362518310547 62.460044860839844 47.05928421020508
