207
Triad, Carotenoid-Porphyrin-C60
C 38.05231475830078 36.30348587036133 41.878353118896484
C 37.25901412963867 41.569252014160156 38.28107833862305
C 38.77819061279297 39.94306945800781 38.19202423095703
C 39.151729583740234 37.707969665527344 38.874141693115234
C 35.059879302978516 41.720420837402344 39.12876510620117
C 36.36457824707031 42.126625061035156 39.14732360839844
C 35.399417877197266 40.129390716552734 37.423439025878906
C 37.38628387451172 38.19724655151367 37.36766815185547
C 36.315589904785156 35.61027526855469 40.67851257324219
C 34.5286979675293 40.72650909423828 38.306556701660156
C 38.50771713256836 36.190589904785156 40.57904052734375
C 33.829261779785156 40.46392059326172 42.29338073730469
C 34.6414909362793 41.885494232177734 40.45454406738281
C 34.251468658447266 38.168643951416016 42.91695022583008
C 34.17860794067383 36.699806213378906 41.07568359375
C 34.52585220336914 36.89399337768555 42.35886764526367
C 33.21735763549805 39.98112487792969 40.13666534423828
C 35.11814498901367 38.809173583984375 37.458335876464844
C 36.0353889465332 37.806880950927734 37.321598052978516
C 34.85939025878906 36.55775451660156 39.02219772338867
C 39.517337799072266 40.780418395996094 42.22216033935547
C 38.25823974609375 41.62334442138672 42.16419219970703
C 39.669464111328125 40.56670379638672 40.765743255615234
C 38.9150276184082 41.504058837890625 40.02699279785156
C 36.31647872924805 37.619773864746094 43.60190200805664
C 37.16671371459961 41.42279052734375 42.99803161621094
C 39.41755676269531 37.11951446533203 40.096500396728516
C 34.96843719482422 40.87765884399414 43.0462646484375
C 35.741355895996094 42.30119705200195 41.23896026611328
C 35.3409309387207 38.57236862182617 43.668025970458984
C 39.88713073730469 39.32618713378906 40.207496643066406
C 33.067352294921875 38.8023681640625 40.94123077392578
C 33.37574768066406 37.56842803955078 40.34823226928711
C 35.91585922241211 36.661842346191406 38.115135192871094
C 33.940895080566406 38.653873443603516 38.25815200805664
C 39.46595764160156 39.4627685546875 43.06888198852539
C 38.09076690673828 39.26621627807617 43.7352294921875
C 39.52939987182617 38.1556396484375 42.3188362121582
C 37.651058197021484 37.962158203125 43.52337646484375
C 35.02180099487305 36.01479721069336 40.2357292175293
C 38.07292938232422 42.17805099487305 40.873435974121094
C 39.891815185546875 38.125553131103516 40.93694305419922
C 38.516822814941406 37.30778884887695 42.72563171386719
C 39.4033088684082 39.03690719604492 38.98920822143555
C 35.82927322387695 36.590267181396484 42.809593200683594
C 37.08036804199219 40.256370544433594 43.73134231567383
C 35.92982482910156 41.73842239379883 42.50104904174805
C 38.48903274536133 41.198360443115234 38.7264518737793
C 36.77260208129883 42.46417236328125 40.46788787841797
C 33.805545806884766 37.511077880859375 39.04486846923828
C 35.712074279785156 39.93559265136719 43.73593521118164
C 36.73609161376953 35.90980529785156 41.963096618652344
C 36.778282165527344 40.5147819519043 37.43693161010742
C 37.722145080566406 39.54204559326172 37.39695358276367
C 38.08750915527344 37.2380256652832 38.058868408203125
C 37.408267974853516 35.76628112792969 39.79638671875
C 33.724815368652344 40.9565315246582 40.96643829345703
C 33.51244354248047 39.10787582397461 42.186012268066406
C 37.23688507080078 36.30181884765625 38.525020599365234
C 33.554710388183594 39.8263053894043 38.78512191772461
C 40.67131042480469 41.52451705932617 42.79269027709961
N 41.14112091064453 40.97141647338867 43.832481384277344
C 40.537837982177734 39.62418746948242 44.10980987548828
H 40.1040153503418 39.62764358520508 45.11302185058594
H 41.32465744018555 38.865970611572266 44.083927154541016
C 42.5734748840332 45.17369842529297 41.39645004272461
C 41.59885787963867 45.19312286376953 42.336875915527344
H 41.4346809387207 46.06398010253906 42.96633529663086
C 40.97493362426758 43.97692108154297 42.736366271972656
H 40.221004486083984 44.00883865356445 43.51876449584961
C 41.31057357788086 42.721771240234375 42.16815185546875
C 43.030311584472656 43.94453811645508 41.009361267089844
H 43.952152252197266 43.87400817871094 40.43769454956055
C 42.360572814941406 42.731651306152344 41.31007385253906
H 42.64408493041992 41.8230094909668 40.785133361816406
C 43.23789978027344 46.454185485839844 40.890106201171875
C 42.675010681152344 47.68202209472656 41.39299774169922
C 41.39583969116211 48.06999969482422 41.67995834350586
H 40.52515411376953 47.45879364013672 41.46650695800781
C 41.42250442504883 49.35963439941406 42.22435760498047
H 40.5847053527832 49.98511505126953 42.51434326171875
C 42.727657318115234 49.81079864501953 42.08322525024414
N 43.433753967285156 48.80366516113281 41.51850128173828
H 44.40492248535156 48.84294128417969 41.24026870727539
C 43.30649948120117 51.13068389892578 42.15781021118164
H 42.50764846801758 51.86895751953125 42.105743408203125
C 44.5910758972168 51.476295471191406 42.16929244995117
C 44.98442840576172 52.79546356201172 42.11778259277344
H 44.34537887573242 53.665367126464844 42.227848052978516
C 46.32731628417969 52.75331115722656 41.95729064941406
H 46.95991897583008 53.59788513183594 41.70481491088867
C 46.78664779663086 51.4178466796875 41.99362564086914
N 45.689205169677734 50.642852783203125 42.24737548828125
C 48.047271728515625 50.848228454589844 41.744102478027344
C 48.31059265136719 50.03755187988281 40.67601013183594
C 49.308738708496094 50.23284149169922 39.62404251098633
H 50.075347900390625 50.99237823486328 39.73647689819336
C 48.96360397338867 49.32086944580078 38.6053352355957
H 49.396080017089844 49.17498779296875 37.621002197265625
C 47.86690902709961 48.5606689453125 38.969295501708984
N 47.532325744628906 49.0821533203125 40.19928741455078
H 46.805328369140625 48.57807922363281 40.688682556152344
C 47.27946090698242 47.57554626464844 38.31395721435547
H 47.696895599365234 47.278602600097656 37.35297393798828
C 46.082122802734375 46.875762939453125 38.77882766723633
C 45.303558349609375 45.86932373046875 38.052093505859375
H 45.5499382019043 45.3504638671875 37.131595611572266
C 44.168540954589844 45.789833068847656 38.80854797363281
H 43.341461181640625 45.13538360595703 38.55385208129883
C 44.299320220947266 46.42741394042969 39.98500061035156
N 45.45870590209961 47.11566925048828 39.95098114013672
C 50.70138168334961 50.74494171142578 45.140628814697266
C 51.12560272216797 50.13160705566406 43.95232391357422
H 52.03792190551758 49.54065704345703 43.95730972290039
C 50.294803619384766 50.261260986328125 42.78453063964844
H 50.49702453613281 49.88414001464844 41.78529739379883
C 49.10813903808594 50.959571838378906 42.861141204833984
C 49.5408935546875 51.50916290283203 45.12985610961914
H 49.21516036987305 51.82554626464844 46.117462158203125
C 48.83065414428711 51.670867919921875 43.98291015625
H 47.83429718017578 52.105125427246094 43.96703338623047
N 51.43766403198242 50.50450897216797 46.363563537597656
H 51.70964050292969 49.53977966308594 46.47934341430664
C 51.83121109008789 51.37251281738281 47.35457992553711
O 51.676456451416016 52.53007507324219 47.15150451660156
C 52.62908935546875 50.80872344970703 48.575157165527344
C 52.58427810668945 51.532318115234375 49.72543716430664
H 52.30364227294922 52.580116271972656 49.65516662597656
C 53.24192810058594 50.97723388671875 50.782127380371094
C 53.75009536743164 49.69342041015625 50.69712829589844
H 54.36934280395508 49.285118103027344 51.49173355102539
C 53.74683380126953 48.96116638183594 49.53444290161133
H 54.07667922973633 47.92729187011719 49.47218322753906
C 53.156585693359375 49.53053283691406 48.44764709472656
H 53.0189208984375 48.89470672607422 47.576820373535156
C 53.54715347290039 51.81062316894531 51.950103759765625
H 53.09816360473633 52.798118591308594 51.85429763793945
C 54.18361282348633 51.51580810546875 53.081214904785156
H 54.609039306640625 50.51677703857422 53.16408157348633
C 54.565025329589844 52.4334716796875 54.19169616699219
C 54.86239242553711 53.8773193359375 53.86872100830078
H 54.147884368896484 54.475242614746094 54.43830490112305
H 54.76022720336914 54.099365234375 52.80442428588867
H 55.836238861083984 54.18896484375 54.252071380615234
C 54.87163162231445 51.902069091796875 55.397064208984375
H 54.812530517578125 50.82026672363281 55.50716781616211
C 55.37763595581055 52.54681396484375 56.60231018066406
H 55.553627014160156 53.6214599609375 56.5927848815918
C 55.84770202636719 51.92011260986328 57.723289489746094
H 55.74383544921875 50.84130859375 57.829627990722656
C 56.55921936035156 52.53693389892578 58.8236198425293
C 56.293922424316406 51.89411163330078 60.17916488647461
H 55.674076080322266 50.99546813964844 60.205421447753906
H 57.20412063598633 51.661903381347656 60.73601150512695
H 55.87310028076172 52.66735076904297 60.82528305053711
C 57.349857330322266 53.626365661621094 58.61682891845703
H 57.37385177612305 54.03002166748047 57.60568618774414
C 57.90485763549805 54.460777282714844 59.69854736328125
H 58.05987548828125 54.05860137939453 60.6986198425293
C 58.33199691772461 55.691741943359375 59.526390075683594
H 58.22465896606445 56.15196228027344 58.54526901245117
C 59.14092254638672 56.364219665527344 60.57747268676758
H 59.57186508178711 55.65916442871094 61.28677749633789
C 59.32542419433594 57.649208068847656 60.74700927734375
C 58.56791687011719 58.66651916503906 59.85569763183594
H 59.269649505615234 59.08599090576172 59.13176345825195
H 57.71047592163086 58.150657653808594 59.41849899291992
H 58.139007568359375 59.490440368652344 60.429847717285156
C 60.2586669921875 58.2027587890625 61.75834274291992
H 60.36594772338867 57.56550598144531 62.634883880615234
C 61.019309997558594 59.395233154296875 61.682281494140625
H 60.95075988769531 59.992286682128906 60.77412033081055
C 61.970054626464844 59.791847229003906 62.71308135986328
H 62.035552978515625 59.105003356933594 63.55561828613281
C 62.953025817871094 60.72125244140625 62.77853012084961
C 63.06640625 61.870018005371094 61.78874588012695
H 63.1632194519043 62.85084533691406 62.258934020996094
H 64.02749633789062 61.53765106201172 61.390869140625
H 62.30213165283203 61.884552001953125 61.008914947509766
C 63.83616256713867 60.76625061035156 64.02446746826172
H 64.17337036132812 61.773536682128906 64.26445007324219
C 64.31268310546875 59.682899475097656 64.68794250488281
H 64.07170867919922 58.71607971191406 64.24849700927734
C 65.30754852294922 59.69664001464844 65.72817993164062
C 65.31449127197266 60.67902374267578 66.7077407836914
C 64.19282531738281 61.64595031738281 66.97891998291016
H 63.292415618896484 61.154930114746094 66.6039047241211
H 64.07488250732422 61.78277587890625 68.05587768554688
H 64.41962432861328 62.56227111816406 66.42993927001953
C 66.3172836303711 60.69518280029297 67.82585144042969
H 65.83472442626953 60.225250244140625 68.68536376953125
H 66.5556411743164 61.72906494140625 68.08417510986328
C 67.66844940185547 59.99934387207031 67.31626892089844
H 68.38420867919922 59.85130310058594 68.12757873535156
H 68.23119354248047 60.56456756591797 66.57040405273438
C 67.3623046875 58.57456970214844 66.76521301269531
H 68.16326904296875 57.942108154296875 66.37673950195312
H 66.77688598632812 57.9921875 67.47976684570312
C 66.44760131835938 58.69062042236328 65.51517486572266
C 67.32648468017578 59.09950256347656 64.43588256835938
H 66.73576354980469 59.46338653564453 63.59260940551758
H 67.94111633300781 59.96226501464844 64.70106506347656
H 68.01509857177734 58.35236358642578 64.03580474853516
C 65.89920043945312 57.32012939453125 65.18243408203125
H 66.45281982421875 56.446556091308594 65.53292846679688
H 64.87361907958984 57.25182342529297 65.55120086669922
H 65.85150146484375 57.34568786621094 64.0917739868164
