207
Triad, Carotenoid-Porphyrin-C60
C 51.13990783691406 67.15145111083984 51.949790954589844
C 46.765804290771484 64.1828842163086 48.28627014160156
C 46.65548324584961 64.89636993408203 50.35986328125
C 47.65389633178711 66.47088623046875 51.789127349853516
C 48.10255432128906 64.52001190185547 46.33290100097656
C 47.66347885131836 63.65932846069336 47.31333923339844
C 46.81916809082031 66.30485534667969 47.22514724731445
C 46.6666259765625 67.21673583984375 49.78358459472656
C 50.600975036621094 68.7854995727539 50.468650817871094
C 47.726436614990234 65.85147857666016 46.30572509765625
C 49.83540344238281 67.47499084472656 52.23716735839844
C 51.66426086425781 65.12168884277344 46.378116607666016
C 49.416343688964844 64.1163558959961 46.108375549316406
C 52.7200813293457 66.66252899169922 47.886226654052734
C 51.36692810058594 68.6799087524414 48.23410415649414
C 52.38191604614258 67.80542755126953 48.64312744140625
C 49.966861724853516 66.47330474853516 45.77922439575195
C 47.1989860534668 67.60379791259766 47.506412506103516
C 47.049407958984375 68.14022064208984 48.784603118896484
C 49.21111297607422 69.23638153076172 48.59109878540039
C 50.060508728027344 62.531070709228516 51.198238372802734
C 50.196163177490234 62.30483627319336 49.68614959716797
C 48.65006637573242 63.1395378112793 51.24925231933594
C 48.0193977355957 62.98501205444336 50.015235900878906
C 53.13249206542969 66.1634292602539 50.10927963256836
C 51.32357406616211 62.71468734741211 48.92238998413086
C 48.902523040771484 66.46153259277344 52.432777404785156
C 52.005592346191406 64.0471420288086 47.26445007324219
C 49.79868698120117 63.13957595825195 46.97364044189453
C 53.18901062011719 65.70026397705078 48.73740005493164
C 48.39060592651367 64.27945709228516 51.92560577392578
C 50.984867095947266 67.2936782836914 46.28716278076172
C 50.67290115356445 68.41356658935547 47.039188385009766
C 48.109100341796875 68.87604522705078 49.3104248046875
C 48.324684143066406 67.92487335205078 46.74858474731445
C 51.17713165283203 63.418880462646484 51.78466033935547
C 52.258575439453125 63.94233322143555 50.793739318847656
C 50.72779846191406 64.76947784423828 52.36503601074219
C 52.52179718017578 65.27941131591797 51.07756805419922
C 50.4586067199707 69.21319580078125 49.18043518066406
C 48.870086669921875 62.43354415893555 49.05863571166992
C 49.339630126953125 65.06787109375 52.53676223754883
C 51.60083770751953 65.77925872802734 51.954925537109375
C 47.354522705078125 65.1346435546875 51.5081901550293
C 52.57490539550781 67.435791015625 49.98204040527344
C 52.300228118896484 63.5367317199707 49.459285736083984
C 51.096336364746094 63.04080581665039 47.56655502319336
C 46.96806716918945 63.807682037353516 49.58450698852539
C 48.670997619628906 62.85336685180664 47.7220344543457
C 49.32033920288086 68.71819305419922 47.303401947021484
C 52.80236053466797 64.36270904541016 48.42140579223633
C 51.610939025878906 67.95343780517578 50.89044189453125
C 46.31690216064453 65.45703125 48.21453857421875
C 46.30263137817383 65.89158630371094 49.51133346557617
C 47.308135986328125 67.50267791748047 50.95154571533203
C 49.499732971191406 68.4996337890625 51.29420852661133
C 50.384952545166016 65.13261413574219 45.86753845214844
C 52.0218505859375 66.44602966308594 46.740333557128906
C 48.24169158935547 68.53018188476562 50.68605041503906
C 48.66883087158203 66.80704498291016 46.0045166015625
C 50.192867279052734 61.165042877197266 51.91250228881836
N 51.09943389892578 61.20625686645508 52.83932113647461
C 51.83512878417969 62.4951057434082 52.882469177246094
H 52.863101959228516 62.297725677490234 52.56787872314453
H 51.815765380859375 62.928401947021484 53.88572692871094
C 47.757652282714844 57.74602127075195 50.507755279541016
C 49.140316009521484 57.922603607177734 50.23545837402344
H 49.59061050415039 57.122623443603516 49.65336608886719
C 49.882293701171875 58.98432540893555 50.692039489746094
H 50.925498962402344 59.089778900146484 50.405391693115234
C 49.38725280761719 60.00303268432617 51.48970413208008
C 47.26119613647461 58.78329849243164 51.33913803100586
H 46.25880813598633 58.67849349975586 51.74632263183594
C 48.07408142089844 59.793460845947266 51.874385833740234
H 47.653236389160156 60.51455307006836 52.570438385009766
C 46.99932861328125 56.52786636352539 50.036476135253906
C 47.747230529785156 55.41469955444336 49.34632110595703
C 48.59617614746094 55.287357330322266 48.31425476074219
H 48.81951141357422 56.06631851196289 47.59273910522461
C 49.26599884033203 54.0285758972168 48.361576080322266
H 50.16173553466797 53.70698928833008 47.84054946899414
C 48.64464569091797 53.2605094909668 49.339012145996094
N 47.85026168823242 54.14957046508789 50.002540588378906
H 47.43642044067383 53.92379379272461 50.89690399169922
C 48.80865478515625 51.94154739379883 49.72367477416992
H 49.83673858642578 51.58916091918945 49.654510498046875
C 48.072078704833984 51.15928268432617 50.46397399902344
C 48.589569091796875 50.486873626708984 51.53994369506836
H 49.64162063598633 50.43063735961914 51.79927062988281
C 47.549686431884766 49.97117233276367 52.19840621948242
H 47.53471374511719 49.17595291137695 52.936397552490234
C 46.375606536865234 50.33860397338867 51.391151428222656
N 46.703407287597656 51.16376876831055 50.4793815612793
C 44.93107986450195 50.08037185668945 51.7217903137207
C 43.8808479309082 51.04216384887695 51.70378494262695
C 42.479793548583984 50.88374710083008 51.511653900146484
H 41.980709075927734 49.93181228637695 51.363441467285156
C 41.91501235961914 52.15853500366211 51.28469467163086
H 40.92826843261719 52.386287689208984 50.89522933959961
C 42.962371826171875 53.11696243286133 51.31801986694336
N 44.048301696777344 52.425655364990234 51.54084396362305
H 44.96625518798828 52.84053421020508 51.455074310302734
C 42.78530502319336 54.50603103637695 51.107421875
H 41.728519439697266 54.73115158081055 50.971614837646484
C 43.706565856933594 55.55939865112305 50.809391021728516
C 43.55145263671875 56.89467239379883 50.45713424682617
H 42.609642028808594 57.40742111206055 50.29188919067383
C 44.773033142089844 57.41781997680664 50.15763854980469
H 44.98125457763672 58.39268112182617 49.729251861572266
C 45.63911437988281 56.4537467956543 50.4243049621582
N 45.005882263183594 55.34041976928711 50.74046325683594
C 44.22721862792969 46.08249282836914 53.186092376708984
C 43.27524948120117 47.08358383178711 53.35926818847656
H 42.42153549194336 46.81057357788086 53.9742546081543
C 43.47897720336914 48.34147262573242 52.81372833251953
H 42.77104187011719 49.0746955871582 53.191593170166016
C 44.67844009399414 48.66676712036133 52.09090805053711
C 45.38397216796875 46.37211990356445 52.473045349121094
H 45.98661422729492 45.471012115478516 52.39306640625
C 45.55598449707031 47.62259292602539 51.866939544677734
H 46.42079544067383 47.78313064575195 51.22826385498047
N 44.01866912841797 44.79983139038086 53.840576171875
H 43.84035873413086 44.09355545043945 53.14238739013672
C 44.21676254272461 44.46803665161133 55.12149429321289
O 44.39789581298828 45.27736282348633 56.00769805908203
C 44.04085159301758 43.038150787353516 55.423580169677734
C 44.37975311279297 42.08442306518555 54.52315902709961
H 44.71473693847656 42.40031814575195 53.53849411010742
C 44.170021057128906 40.735530853271484 54.714569091796875
C 43.74839782714844 40.27988052368164 55.95858383178711
H 43.45940017700195 39.25436019897461 56.173885345458984
C 43.555450439453125 41.236080169677734 56.98069381713867
H 43.337440490722656 40.95577621459961 58.008052825927734
C 43.58589553833008 42.63626480102539 56.667945861816406
H 43.64260482788086 43.36579513549805 57.47177505493164
C 44.52409362792969 39.7887077331543 53.68376541137695
H 44.79054641723633 40.32197952270508 52.772422790527344
C 44.713600158691406 38.49789810180664 53.673004150390625
H 44.609676361083984 37.89957809448242 54.576961517333984
C 45.214111328125 37.64142990112305 52.57590866088867
C 45.13197326660156 36.17658615112305 53.02741241455078
H 44.12116622924805 35.785640716552734 53.16117477416992
H 45.615047454833984 36.21054458618164 54.006160736083984
H 45.58761978149414 35.558902740478516 52.25067901611328
C 45.56859588623047 38.03974533081055 51.3303108215332
H 45.638648986816406 39.094905853271484 51.070213317871094
C 46.26555252075195 37.10806655883789 50.31437301635742
H 46.437156677246094 36.092594146728516 50.66834259033203
C 46.6934814453125 37.49636459350586 49.07344436645508
H 46.59537887573242 38.5411262512207 48.78228759765625
C 47.47300338745117 36.79123306274414 48.076541900634766
C 48.16229248046875 37.60994338989258 47.01910400390625
H 47.863521575927734 37.32558059692383 46.00799560546875
H 47.90625 38.66355514526367 47.148773193359375
H 49.20779037475586 37.41904067993164 47.27001953125
C 47.66880416870117 35.454044342041016 48.20372009277344
H 47.227333068847656 34.90523147583008 49.034278869628906
C 48.326698303222656 34.583797454833984 47.23773193359375
H 48.21760177612305 34.861087799072266 46.19029235839844
C 48.842185974121094 33.38662338256836 47.455875396728516
H 48.852745056152344 32.96757125854492 48.460968017578125
C 49.3277587890625 32.53378677368164 46.391780853271484
H 49.45033645629883 32.939640045166016 45.388694763183594
C 49.76774978637695 31.284786224365234 46.51392364501953
C 49.72358322143555 30.444965362548828 47.76395034790039
H 50.585025787353516 30.669322967529297 48.39643478393555
H 48.76913070678711 30.46280288696289 48.2942008972168
H 49.92157745361328 29.379337310791016 47.63096237182617
C 50.19819259643555 30.523616790771484 45.40456771850586
H 49.918460845947266 31.02554702758789 44.4795036315918
C 51.085845947265625 29.539691925048828 45.39698791503906
H 51.51969909667969 29.05600357055664 46.27090835571289
C 51.45449447631836 29.01327133178711 44.090110778808594
H 50.74943542480469 29.318645477294922 43.31838607788086
C 52.57168960571289 28.38045883178711 43.7131462097168
C 53.70480728149414 28.066165924072266 44.619441986083984
H 54.652557373046875 28.392780303955078 44.18637466430664
H 53.574073791503906 28.494274139404297 45.615482330322266
H 53.78635787963867 26.98801040649414 44.77236557006836
C 52.76268005371094 28.095088958740234 42.24803924560547
H 51.94727325439453 28.318485260009766 41.56165313720703
C 53.832889556884766 27.495609283447266 41.655670166015625
H 54.70155715942383 27.162662506103516 42.22178268432617
C 53.97068786621094 27.237255096435547 40.193634033203125
C 53.64675521850586 28.15188217163086 39.23244094848633
C 53.328582763671875 29.602535247802734 39.46009826660156
H 53.89204406738281 29.865291595458984 40.35783767700195
H 53.7521858215332 30.214435577392578 38.660980224609375
H 52.24068069458008 29.687694549560547 39.50107192993164
C 53.77384948730469 27.860973358154297 37.74753189086914
H 54.80436325073242 28.054851531982422 37.44270324707031
H 53.04346466064453 28.534175872802734 37.293861389160156
C 53.40281295776367 26.420368194580078 37.44822692871094
H 53.572879791259766 26.187870025634766 36.394901275634766
H 52.393211364746094 26.063701629638672 37.66259002685547
C 54.454933166503906 25.588878631591797 38.34282684326172
H 54.283912658691406 24.528575897216797 38.14542007446289
H 55.44089126586914 25.84390640258789 37.948726654052734
C 54.45357894897461 25.807357788085938 39.84331512451172
C 53.61882781982422 24.745891571044922 40.556884765625
H 53.476322174072266 24.769821166992188 41.6392822265625
H 52.67850875854492 24.761703491210938 40.001895904541016
H 54.08512496948242 23.77862548828125 40.35832214355469
C 55.82521057128906 25.440475463867188 40.31689453125
H 56.498207092285156 26.255603790283203 40.04281997680664
H 55.8159294128418 25.327129364013672 41.4029541015625
H 56.28022384643555 24.57378387451172 39.832881927490234
