207
Triad, Carotenoid-Porphyrin-C60
C 37.3793830871582 62.23229217529297 38.29380798339844
C 35.8482666015625 59.44007110595703 44.10477066040039
C 37.073883056640625 61.31170654296875 43.55670928955078
C 37.50809860229492 62.866275787353516 41.7904167175293
C 34.11003112792969 58.206626892089844 42.894203186035156
C 35.3928337097168 58.26836013793945 43.4661979675293
C 33.77704620361328 60.49854278564453 43.313533782958984
C 35.25899887084961 62.71427536010742 42.81742858886719
C 35.25542449951172 62.94664001464844 38.465179443359375
C 33.297115325927734 59.319522857666016 42.83038330078125
C 37.31568145751953 63.0958137512207 39.417938232421875
C 33.950138092041016 57.43625259399414 39.36296844482422
C 34.206085205078125 57.293312072753906 41.7881965637207
C 34.38417053222656 59.092987060546875 37.601417541503906
C 33.463958740234375 61.25353240966797 38.16853713989258
C 34.41099166870117 60.4698486328125 37.46084976196289
C 32.616416931152344 58.75864791870117 40.5843505859375
C 33.25553512573242 61.5318717956543 42.51917266845703
C 34.00703048706055 62.61404800415039 42.24765396118164
C 33.3072624206543 62.62959671020508 39.897003173828125
C 39.233116149902344 58.73587417602539 40.991451263427734
C 38.10945510864258 57.75069046020508 41.15022659301758
C 38.91647720336914 59.7183952331543 42.156898498535156
C 38.007869720458984 59.125492095947266 42.98120880126953
C 36.44147491455078 59.74783706665039 37.25373840332031
C 37.37519454956055 57.21120071411133 40.13441848754883
C 38.08610916137695 62.771671295166016 40.55927658081055
C 35.30408477783203 57.03485107421875 39.245548248291016
C 35.547279357910156 56.943241119384766 41.59730529785156
C 35.68484878540039 58.662567138671875 37.46117401123047
C 38.791465759277344 61.07893753051758 41.8962287902832
C 32.60676574707031 59.20480728149414 39.26887893676758
C 32.63491439819336 60.62458419799805 39.107879638671875
C 34.0593147277832 63.17009353637695 40.94184494018555
C 32.4142951965332 61.00828170776367 41.5078125
C 39.25814437866211 59.31874084472656 39.55533218383789
C 38.254146575927734 58.79486846923828 38.561824798583984
C 38.980072021484375 60.88634490966797 39.4631462097168
C 37.71217346191406 59.844852447509766 37.816104888916016
C 33.93561553955078 62.46720886230469 38.67351150512695
C 37.53131866455078 57.980525970458984 42.36943054199219
C 38.85690689086914 61.607303619384766 40.567291259765625
C 38.17289733886719 61.0335693359375 38.35788345336914
C 37.94840621948242 61.85088348388672 42.60877227783203
C 35.66164016723633 60.915531158447266 37.21486282348633
C 37.43941879272461 57.69228744506836 38.87038040161133
C 36.07890701293945 56.7805290222168 40.32084274291992
C 37.14638900756836 59.932918548583984 43.766910552978516
C 36.27357864379883 57.53150177001953 42.660247802734375
C 32.49653244018555 61.52893829345703 40.18315887451172
C 36.13972473144531 57.661685943603516 38.28938674926758
C 36.111732482910156 62.110443115234375 37.7631721496582
C 34.999149322509766 60.6113166809082 44.0172233581543
C 35.77016830444336 61.73788833618164 43.712764739990234
C 36.16118621826172 63.2678108215332 41.90100860595703
C 35.95982360839844 63.48334503173828 39.507877349853516
C 33.44205093383789 57.6096076965332 40.616085052490234
C 33.51692199707031 58.49155044555664 38.52732467651367
C 35.43163299560547 63.583282470703125 40.76493453979492
C 32.532955169677734 59.60139465332031 41.696441650390625
C 40.55584716796875 58.025814056396484 41.08555603027344
N 41.35341262817383 58.14388656616211 40.046173095703125
C 40.757389068603516 59.03103256225586 39.08559799194336
H 40.801082611083984 58.51158905029297 38.124908447265625
H 41.390960693359375 59.92091751098633 39.122276306152344
C 41.99169921875 56.04121017456055 44.71821212768555
C 41.247901916503906 55.362640380859375 43.746299743652344
H 40.997127532958984 54.321327209472656 43.93163299560547
C 40.73306655883789 55.992027282714844 42.5909309387207
H 40.06178283691406 55.511146545410156 41.884033203125
C 40.983985900878906 57.34064865112305 42.321014404296875
C 42.21372985839844 57.37492752075195 44.43895721435547
H 42.62632751464844 58.04479217529297 45.18903732299805
C 41.793609619140625 58.021278381347656 43.22804641723633
H 42.06687927246094 59.03781509399414 42.95685577392578
C 42.46628189086914 55.35457229614258 46.00918960571289
C 42.139774322509766 53.8997802734375 46.25333786010742
C 40.96588897705078 53.22631072998047 46.17082977294922
H 39.979068756103516 53.592613220214844 45.90769577026367
C 41.18531799316406 51.95075607299805 46.753604888916016
H 40.50993728637695 51.13112258911133 46.97560501098633
C 42.47951889038086 51.835426330566406 47.113773345947266
N 43.05260467529297 53.034339904785156 46.77690124511719
H 44.0480842590332 53.204139709472656 46.72882843017578
C 43.380069732666016 50.81401824951172 47.590423583984375
H 43.14875411987305 49.84246063232422 47.15626525878906
C 44.71454620361328 50.85174560546875 47.911983489990234
C 45.64257049560547 50.11766815185547 47.186012268066406
H 45.44401550292969 49.59331130981445 46.257118225097656
C 46.82009506225586 50.566917419433594 47.67608642578125
H 47.83644485473633 50.32127380371094 47.386409759521484
C 46.518672943115234 51.47219467163086 48.78239059448242
N 45.200782775878906 51.61542510986328 48.87941360473633
C 47.480743408203125 52.29447937011719 49.56190872192383
C 47.25801467895508 53.62361145019531 49.863426208496094
C 47.678131103515625 54.282630920410156 51.03751754760742
H 48.2803955078125 53.86208724975586 51.83604431152344
C 47.15831756591797 55.559715270996094 51.033546447753906
H 47.228858947753906 56.3324089050293 51.79196548461914
C 46.25553512573242 55.69662857055664 49.914371490478516
N 46.42352294921875 54.55923843383789 49.22834396362305
H 45.82136535644531 54.43614196777344 48.42561340332031
C 45.3763542175293 56.67431640625 49.62601852416992
H 45.40205001831055 57.495628356933594 50.34065628051758
C 44.35368347167969 56.71350860595703 48.62094497680664
C 43.314388275146484 57.646636962890625 48.431217193603516
H 43.17436218261719 58.520320892333984 49.059146881103516
C 42.506011962890625 57.096656799316406 47.51551818847656
H 41.56617736816406 57.5075569152832 47.16181564331055
C 43.108638763427734 56.06071853637695 46.95014572143555
N 44.17625427246094 55.76289367675781 47.68772888183594
C 51.12053680419922 50.408748626708984 50.92205810546875
C 51.04046630859375 51.77875518798828 50.94898986816406
H 51.9031867980957 52.285335540771484 51.3740348815918
C 49.83949279785156 52.408077239990234 50.534637451171875
H 49.8573112487793 53.48332977294922 50.37623977661133
C 48.764678955078125 51.67192840576172 50.03534698486328
C 50.06791687011719 49.654239654541016 50.47697448730469
H 50.168060302734375 48.57193374633789 50.4895133972168
C 48.86648941040039 50.29503631591797 50.11466979980469
H 48.14961624145508 49.57419204711914 49.72990036010742
N 52.233367919921875 49.78624725341797 51.555233001708984
H 53.02762985229492 49.7501335144043 50.93400955200195
C 52.18789291381836 49.32705307006836 52.82754898071289
O 51.15167236328125 49.21641159057617 53.446449279785156
C 53.503273010253906 48.9300422668457 53.42380905151367
C 53.6223258972168 47.821598052978516 54.267513275146484
H 52.77766418457031 47.15361785888672 54.41557312011719
C 54.91747283935547 47.483787536621094 54.68287658691406
C 55.96760940551758 48.312984466552734 54.38439178466797
H 56.90564727783203 47.90834045410156 54.755760192871094
C 55.91927719116211 49.51497268676758 53.64659118652344
H 56.83616256713867 50.08010482788086 53.49992370605469
C 54.62296676635742 49.7792854309082 53.111663818359375
H 54.46249008178711 50.700252532958984 52.557010650634766
C 55.19422149658203 46.249725341796875 55.493892669677734
H 54.2408447265625 45.765079498291016 55.69911575317383
C 56.354881286621094 45.69898223876953 56.019351959228516
H 57.299964904785156 46.187583923339844 55.78696060180664
C 56.596683502197266 44.43291091918945 56.70555114746094
C 55.35869598388672 43.81853103637695 57.218994140625
H 54.491539001464844 44.42197036743164 57.49533462524414
H 55.621131896972656 43.13490295410156 58.029083251953125
H 54.99210739135742 43.24088668823242 56.367881774902344
C 57.80118942260742 43.82548522949219 56.60090637207031
H 58.65047836303711 44.29262161254883 56.10449981689453
C 58.16460037231445 42.51974868774414 57.05519485473633
H 57.38587188720703 41.99882507324219 57.610294342041016
C 59.392208099365234 42.05012130737305 56.879981994628906
H 60.12656021118164 42.62732696533203 56.32008361816406
C 59.833526611328125 40.7471923828125 57.22275924682617
C 59.05881881713867 39.967952728271484 58.1823844909668
H 58.109310150146484 39.59625244140625 57.79157257080078
H 59.67241287231445 39.241493225097656 58.7192497253418
H 58.848419189453125 40.70683670043945 58.958431243896484
C 60.8769416809082 40.27225112915039 56.566165924072266
H 61.44776916503906 40.922462463378906 55.904869079589844
C 61.39704513549805 38.906654357910156 56.67662811279297
H 60.566612243652344 38.207759857177734 56.58805465698242
C 62.69524383544922 38.51393508911133 56.63093948364258
H 63.400543212890625 39.331634521484375 56.49009323120117
C 63.18013381958008 37.095584869384766 56.65673065185547
H 62.35690689086914 36.39809036254883 56.80412292480469
C 64.35778045654297 36.579036712646484 56.43701934814453
C 65.63931274414062 37.29713821411133 56.27257537841797
H 65.38384246826172 38.24060821533203 55.785675048828125
H 65.92909240722656 37.60374450683594 57.27979278564453
H 66.41751098632812 36.75376510620117 55.73256301879883
C 64.51277923583984 35.12087631225586 56.50383377075195
H 65.4312744140625 34.83271789550781 57.01299285888672
C 63.675025939941406 34.114349365234375 56.07362747192383
H 62.814239501953125 34.527000427246094 55.54951858520508
C 64.11634826660156 32.70121765136719 56.206214904785156
H 65.0060806274414 32.488277435302734 56.79694747924805
C 63.44722366333008 31.662246704101562 55.647300720214844
C 62.13215255737305 31.892393112182617 55.024166107177734
H 61.41180419921875 32.433326721191406 55.64137649536133
H 62.32455062866211 32.42896270751953 54.092750549316406
H 61.5657844543457 30.967666625976562 54.895450592041016
C 63.701133728027344 30.28816795349121 55.873817443847656
H 64.02574157714844 30.093116760253906 56.89485168457031
C 63.54119873046875 29.295387268066406 54.95203399658203
H 63.27878952026367 29.583927154541016 53.935272216796875
C 63.89958190917969 27.780399322509766 54.93976593017578
C 64.70777130126953 27.244848251342773 55.95265197753906
C 65.5110092163086 27.931787490844727 56.99227523803711
H 64.89432525634766 28.296560287475586 57.81635284423828
H 66.32377624511719 27.302841186523438 57.36146545410156
H 65.9574203491211 28.7957706451416 56.49556350708008
C 64.96988677978516 25.7197208404541 56.114532470703125
H 64.9240951538086 25.509939193725586 57.18521499633789
H 65.91708374023438 25.51506996154785 55.61114501953125
C 63.86573791503906 24.850055694580078 55.44100570678711
H 62.91348648071289 25.043909072875977 55.93910598754883
H 63.97520446777344 23.767311096191406 55.53126525878906
C 63.807838439941406 25.36712074279785 54.03155517578125
H 64.82276153564453 25.312593460083008 53.63227844238281
H 63.18303298950195 24.681936264038086 53.454837799072266
C 63.290924072265625 26.808218002319336 53.93989944458008
C 63.518733978271484 27.19795036315918 52.43228530883789
H 63.03818893432617 28.15825843811035 52.23390197753906
H 64.57506561279297 27.40943717956543 52.253658294677734
H 63.1998291015625 26.4052791595459 51.75225830078125
C 61.73544692993164 26.730451583862305 53.938472747802734
H 61.32730484008789 27.683292388916016 53.59500503540039
H 61.351837158203125 25.911712646484375 53.32611846923828
H 61.34684753417969 26.588241577148438 54.94903564453125
