207
Triad, Carotenoid-Porphyrin-C60
C 35.66366195678711 40.10789108276367 57.933860778808594
C 39.53219223022461 37.0014762878418 53.927406311035156
C 40.021183013916016 38.23811721801758 55.68003845214844
C 39.00504684448242 39.10234451293945 57.75019073486328
C 37.644474029541016 35.85038375854492 52.897918701171875
C 38.594242095947266 36.844268798828125 52.90784454345703
C 38.5659065246582 35.18647384643555 55.045745849609375
C 39.226741790771484 36.706260681152344 57.370567321777344
C 35.29860305786133 37.99602127075195 58.63453674316406
C 37.62250900268555 35.011322021484375 54.04380798339844
C 36.87026596069336 39.72108840942383 58.536293029785156
C 34.265865325927734 36.90974807739258 53.15996551513672
C 36.418094635009766 36.34457015991211 52.374717712402344
C 33.250919342041016 37.705772399902344 55.24031066894531
C 33.99602127075195 36.539222717285156 57.197479248046875
C 33.43368148803711 37.6452522277832 56.59967041015625
C 35.27072525024414 35.11972427368164 54.052284240722656
C 37.9296989440918 34.987850189208984 56.286376953125
C 38.244380950927734 35.7225227355957 57.37535095214844
C 35.9371452331543 35.764137268066406 57.94745635986328
C 37.75873947143555 41.362518310546875 53.88336181640625
C 37.36711502075195 40.3233757019043 52.85594177246094
C 38.95103073120117 40.583465576171875 54.523956298828125
C 39.288394927978516 39.44247817993164 53.791297912597656
C 33.823673248291016 39.786434173583984 55.92156982421875
C 35.98739242553711 39.960296630859375 52.67242431640625
C 38.03891372680664 40.02262878417969 57.909820556640625
C 34.5006217956543 38.25730514526367 52.80201721191406
C 36.65646743774414 37.652496337890625 52.05957794189453
C 33.450199127197266 39.04697036743164 54.825767517089844
C 39.10366439819336 40.508914947509766 55.87559509277344
C 34.21596908569336 35.55006790161133 54.93675231933594
C 34.431705474853516 35.523555755615234 56.33966827392578
C 37.23752212524414 36.174293518066406 58.24818420410156
C 36.644229888916016 34.58299255371094 56.01282501220703
C 36.64653396606445 41.852783203125 54.851806640625
C 35.26797866821289 41.23059844970703 54.60454559326172
C 36.8867301940918 41.44448471069336 56.32286071777344
C 34.788761138916016 40.78401565551758 55.83221435546875
C 34.97909164428711 36.68791198730469 58.19727325439453
C 38.354793548583984 39.305423736572266 52.79615783691406
C 38.08366012573242 40.849586486816406 56.796531677246094
C 35.728702545166016 40.95022964477539 56.79986572265625
C 39.566829681396484 39.2890510559082 56.500389099121094
C 33.835262298583984 38.939231872558594 57.03539276123047
C 34.98513412475586 40.42060852050781 53.52272033691406
C 35.69112014770508 38.63954162597656 52.245887756347656
C 39.86293411254883 38.282169342041016 54.289039611816406
C 37.99019241333008 38.026920318603516 52.324806213378906
C 35.59904861450195 34.958251953125 56.855491638183594
C 34.08473587036133 39.3343505859375 53.62007141113281
C 34.73495864868164 39.11717224121094 58.015586853027344
C 39.568599700927734 36.1777458190918 54.99750518798828
C 39.82735061645508 36.9631233215332 56.11170196533203
C 38.83957290649414 37.793453216552734 58.223388671875
C 36.60731887817383 38.423858642578125 58.96295928955078
C 35.22293472290039 35.961151123046875 52.962196350097656
C 33.698246002197266 36.700016021728516 54.389305114746094
C 37.596370697021484 37.46015548706055 58.75855255126953
C 36.44595718383789 34.57536697387695 54.628501892089844
C 38.0895881652832 42.6777229309082 53.090972900390625
N 37.34336471557617 43.629310607910156 53.37439727783203
C 36.53743362426758 43.373497009277344 54.59381866455078
H 35.533199310302734 43.74345016479492 54.37181091308594
H 36.954280853271484 43.89302062988281 55.460411071777344
C 40.70113754272461 42.75237274169922 49.685577392578125
C 39.4122428894043 43.16960525512695 49.61469268798828
H 39.05374526977539 43.69770431518555 48.73481750488281
C 38.58024215698242 43.0513916015625 50.70280456542969
H 37.57606887817383 43.46364974975586 50.64579772949219
C 39.03568649291992 42.6850700378418 51.964988708496094
C 41.18571090698242 42.35343933105469 50.90196990966797
H 42.21176528930664 41.99501419067383 50.88427734375
C 40.3585319519043 42.2298583984375 52.050376892089844
H 40.698360443115234 41.824424743652344 52.999961853027344
C 41.5616340637207 42.791969299316406 48.47718048095703
C 41.05330276489258 43.26897048950195 47.21709442138672
C 39.9443244934082 42.88378143310547 46.51390838623047
H 39.148494720458984 42.19589614868164 46.77979278564453
C 39.83603286743164 43.73628616333008 45.399986267089844
H 39.06499099731445 43.7597541809082 44.636993408203125
C 40.93826675415039 44.51930236816406 45.35057830810547
N 41.715206146240234 44.157955169677734 46.493125915527344
H 42.607608795166016 44.57075881958008 46.728363037109375
C 41.26224899291992 45.66525650024414 44.44762420654297
H 40.56040573120117 45.7211799621582 43.61683654785156
C 42.47269058227539 46.31011962890625 44.415557861328125
C 42.8428840637207 47.28129577636719 43.457115173339844
H 42.3797721862793 47.6298713684082 42.5399169921875
C 44.083248138427734 47.68076705932617 43.823333740234375
H 44.61398696899414 48.401161193847656 43.209678649902344
C 44.506587982177734 46.94211959838867 45.010047912597656
N 43.50423812866211 46.059635162353516 45.257301330566406
C 45.75008773803711 46.96877670288086 45.82872009277344
C 46.46829605102539 45.857398986816406 46.341033935546875
C 47.816349029541016 45.494056701660156 46.109100341796875
H 48.568058013916016 46.116172790527344 45.634620666503906
C 47.98920822143555 44.14036560058594 46.56129455566406
H 48.89069747924805 43.53697204589844 46.53990936279297
C 46.725154876708984 43.76247024536133 47.056304931640625
N 45.95969009399414 44.79513168334961 46.94091033935547
H 45.023014068603516 44.69489669799805 47.30792236328125
C 46.35146713256836 42.57564163208008 47.59546661376953
H 47.0716667175293 41.760623931884766 47.54084777832031
C 45.078006744384766 42.2426643371582 48.067710876464844
C 44.590023040771484 40.91603088378906 48.484230041503906
H 45.197452545166016 40.02485656738281 48.36561584472656
C 43.25068283081055 41.08739471435547 48.82752227783203
H 42.542911529541016 40.282901763916016 48.998023986816406
C 42.85805892944336 42.395145416259766 48.593170166015625
N 43.94649887084961 43.04927444458008 48.12481689453125
C 47.35468673706055 50.88016128540039 47.224586486816406
C 47.883731842041016 49.68872833251953 47.635963439941406
H 48.700016021728516 49.69049835205078 48.35376739501953
C 47.50895309448242 48.449642181396484 47.01634979248047
H 48.1549186706543 47.606971740722656 47.24916076660156
C 46.360050201416016 48.30792236328125 46.23883056640625
C 46.186458587646484 50.72672653198242 46.40325164794922
H 45.610111236572266 51.62036895751953 46.17787170410156
C 45.73923873901367 49.50019454956055 45.90765380859375
H 44.78410720825195 49.48875045776367 45.38884735107422
N 47.596553802490234 52.13396072387695 47.796142578125
H 47.13907241821289 52.19610595703125 48.693321228027344
C 48.41410446166992 53.080814361572266 47.26908874511719
O 48.93733596801758 52.94122314453125 46.21222686767578
C 48.575008392333984 54.30839538574219 48.03662109375
C 49.795719146728516 54.9637565612793 47.988868713378906
H 50.573543548583984 54.631813049316406 47.30596160888672
C 49.9776725769043 56.10612869262695 48.78966522216797
C 49.02724075317383 56.46413040161133 49.732879638671875
H 49.2505989074707 57.29169464111328 50.40132141113281
C 47.867916107177734 55.725196838378906 49.92938995361328
H 47.1310920715332 56.04512405395508 50.661720275878906
C 47.6678581237793 54.61703109741211 49.05919647216797
H 46.84298324584961 53.926002502441406 49.21296691894531
C 51.27420425415039 56.84020233154297 48.633758544921875
H 51.82036209106445 56.33289337158203 47.839866638183594
C 51.73811721801758 57.914581298828125 49.25244903564453
H 51.02964401245117 58.41211700439453 49.91309356689453
C 53.025211334228516 58.56047058105469 48.957122802734375
C 53.24602127075195 59.87135314941406 49.56529998779297
H 53.93434524536133 59.82851791381836 50.411964416503906
H 52.29587936401367 60.20250701904297 49.98960876464844
H 53.547611236572266 60.62871170043945 48.838722229003906
C 54.00999069213867 58.0915412902832 48.18352508544922
H 53.85624313354492 57.06300735473633 47.86041259765625
C 55.25759506225586 58.74599075317383 47.76170349121094
H 55.584590911865234 59.7139778137207 48.138526916503906
C 56.05034255981445 58.2080078125 46.81902313232422
H 55.78239059448242 57.2222900390625 46.44154357910156
C 57.23545455932617 58.77189254760742 46.19933319091797
C 57.46580123901367 60.26522445678711 46.31547546386719
H 57.501407623291016 60.61128234863281 45.280372619628906
H 56.6663932800293 60.78812026977539 46.84461975097656
H 58.47688674926758 60.398292541503906 46.70594787597656
C 58.24885940551758 58.045013427734375 45.618682861328125
H 58.1662483215332 56.95914840698242 45.61775207519531
C 59.496944427490234 58.492393493652344 45.03709411621094
H 59.89925003051758 59.432682037353516 45.411170959472656
C 60.273990631103516 57.71046447753906 44.279624938964844
H 59.88010025024414 56.74626159667969 43.961669921875
C 61.55070114135742 58.18336486816406 43.83509826660156
H 61.94301986694336 58.96809768676758 44.48023986816406
C 62.434444427490234 57.6912841796875 42.963157653808594
C 62.05093002319336 56.574981689453125 42.06348419189453
H 61.8764533996582 55.641151428222656 42.60197448730469
H 61.08059310913086 56.793678283691406 41.612831115722656
H 62.83474349975586 56.43796920776367 41.31560516357422
C 63.798587799072266 58.19768524169922 42.696144104003906
H 64.476806640625 57.371334075927734 42.48857879638672
C 64.19976806640625 59.44818115234375 42.59278106689453
H 63.53525924682617 60.27018737792969 42.85481262207031
C 65.60037994384766 59.78615188598633 42.30116271972656
H 66.24613952636719 58.9312858581543 42.105934143066406
C 66.21588134765625 60.99571228027344 42.19670867919922
C 65.32310485839844 62.210426330566406 42.32471466064453
H 65.85311889648438 63.162540435791016 42.25379180908203
H 64.57964324951172 62.24873733520508 41.52580261230469
H 64.7426528930664 62.17454528808594 43.24897766113281
C 67.59347534179688 61.22563934326172 41.97288513183594
H 67.83277893066406 62.285152435302734 41.89485168457031
C 68.64222717285156 60.43390655517578 42.059173583984375
H 68.53040313720703 59.377052307128906 42.29681396484375
C 70.06060028076172 60.81935119628906 41.92254638671875
C 70.62616729736328 61.72381591796875 42.76225280761719
C 69.94749450683594 62.38541793823242 43.89094543457031
H 69.7168197631836 61.686824798583984 44.69792175292969
H 70.49472045898438 63.20207214355469 44.366432189941406
H 68.99134063720703 62.81911849975586 43.5906982421875
C 72.08293151855469 62.064640045166016 42.73540496826172
H 72.51808166503906 61.41572189331055 43.49829864501953
H 72.18418884277344 63.09516525268555 43.08213806152344
C 72.65492248535156 61.953556060791016 41.28535461425781
H 73.74471282958984 62.018978118896484 41.30872344970703
H 72.30146026611328 62.76283645629883 40.64302062988281
C 72.26284790039062 60.59877395629883 40.76197814941406
H 72.66071319580078 60.34845733642578 39.776329040527344
H 72.78952026367188 59.78802490234375 41.269676208496094
C 70.78353881835938 60.27896499633789 40.70124053955078
C 70.3291244506836 60.98005676269531 39.409149169921875
H 70.5557632446289 62.036163330078125 39.24871826171875
H 70.68851470947266 60.48574447631836 38.50418472290039
H 69.2375717163086 60.96636962890625 39.381195068359375
C 70.61300659179688 58.7881965637207 40.45092010498047
H 69.6563720703125 58.5236701965332 39.995574951171875
H 71.32538604736328 58.371910095214844 39.735595703125
H 70.71509552001953 58.271888732910156 41.40771484375
