207
Triad, Carotenoid-Porphyrin-C60
C 43.7651481628418 43.135257720947266 63.25348663330078
C 48.93882369995117 43.69365310668945 59.413917541503906
C 48.65870666503906 44.47743606567383 61.47993469238281
C 47.196617126464844 44.036922454833984 63.373077392578125
C 48.04587173461914 42.045536041259766 57.87981414794922
C 48.27497863769531 43.32944869995117 58.244850158691406
C 49.050106048583984 41.382503509521484 59.983367919921875
C 48.6692008972168 42.30270004272461 62.55372619628906
C 44.58830642700195 41.05729675292969 63.310523986816406
C 48.4310417175293 41.05217742919922 58.774192810058594
C 44.99432373046875 43.1885986328125 63.84332275390625
C 44.55668640136719 41.14387512207031 57.795143127441406
C 46.8010139465332 41.9527473449707 57.22721862792969
C 43.115360260009766 40.72201919555664 59.654144287109375
C 44.260398864746094 39.6251106262207 61.45159149169922
C 43.22846984863281 40.46072769165039 60.98927307128906
C 46.31536865234375 39.886985778808594 58.458160400390625
C 48.557682037353516 40.54646682739258 60.952392578125
C 48.39689254760742 40.95487976074219 62.26812744140625
C 46.32110595703125 39.73183822631836 62.38372039794922
C 45.198577880859375 46.36421585083008 59.876487731933594
C 45.427677154541016 45.52876663208008 58.57872772216797
C 46.47648239135742 46.078548431396484 60.61663818359375
C 47.362300872802734 45.54444122314453 59.741607666015625
C 42.436378479003906 42.51384735107422 60.92744445800781
C 44.47639846801758 44.62797546386719 58.139801025390625
C 45.84482955932617 44.32294464111328 63.62677764892578
C 44.095584869384766 42.43265151977539 57.704498291015625
C 46.272239685058594 43.2647590637207 57.206512451171875
C 42.67055130004883 42.06342315673828 59.61994171142578
C 46.573482513427734 45.73115921020508 61.94822692871094
C 45.14856719970703 39.51884841918945 59.18292236328125
C 45.247398376464844 39.12296676635742 60.53209686279297
C 47.30778503417969 40.55063247680664 63.02729034423828
C 47.63433837890625 39.62875747680664 60.38920593261719
C 43.88105773925781 45.970458984375 60.758705139160156
C 43.136314392089844 44.76952362060547 60.21522521972656
C 44.100364685058594 45.389503479003906 62.208465576171875
C 42.74847412109375 43.89876937866211 61.246742248535156
C 44.971046447753906 39.939598083496094 62.60980224609375
C 46.778507232666016 45.18114471435547 58.50457763671875
C 45.423789978027344 45.36603927612305 62.683067321777344
C 43.35251235961914 44.217559814453125 62.46912384033203
C 47.65713119506836 44.93916320800781 62.37034606933594
C 42.823829650878906 41.5050163269043 61.787750244140625
C 43.42170333862305 44.2227897644043 58.941993713378906
C 44.9241828918457 43.49272155761719 57.4473876953125
C 48.47110366821289 44.76166915893555 60.12837219238281
C 47.220237731933594 44.121971130371094 57.792442321777344
C 46.49976348876953 39.24628829956055 61.11003875732422
C 43.12934875488281 42.93431091308594 58.580718994140625
C 43.531280517578125 41.844383239746094 62.93303680419922
C 49.323822021484375 42.67089080810547 60.29170227050781
C 49.14026641845703 43.16421890258789 61.577980041503906
C 47.729835510253906 42.77560806274414 63.50281524658203
C 45.528099060058594 41.89036178588867 63.91441345214844
C 45.9229736328125 40.84918975830078 57.60438537597656
C 44.06649398803711 40.280670166015625 58.734458923339844
C 46.88505935668945 41.669586181640625 63.718902587890625
C 47.57902526855469 39.9483528137207 59.044837951660156
C 44.9823112487793 47.77893829345703 59.699607849121094
N 43.906822204589844 48.26068878173828 60.118629455566406
C 43.02727127075195 47.29128646850586 60.853057861328125
H 42.03517532348633 47.3311882019043 60.39610290527344
H 42.96965026855469 47.58027648925781 61.90558624267578
C 47.36599349975586 50.281192779541016 56.969512939453125
C 46.66392517089844 49.11029815673828 56.56095886230469
H 46.535762786865234 48.84538269042969 55.51455307006836
C 45.939056396484375 48.301353454589844 57.43836212158203
H 45.40674591064453 47.43466567993164 57.05486297607422
C 45.830745697021484 48.61249542236328 58.818519592285156
C 47.1448860168457 50.58942794799805 58.29926300048828
H 47.4087028503418 51.61606979370117 58.5400390625
C 46.470741271972656 49.789947509765625 59.2537841796875
H 46.32561492919922 50.14076614379883 60.27233123779297
C 48.231136322021484 51.085506439208984 56.003055572509766
C 48.00177001953125 50.7990837097168 54.59335708618164
C 48.195648193359375 49.70972442626953 53.79941940307617
H 48.529136657714844 48.72881317138672 54.12163162231445
C 47.90081024169922 50.08827209472656 52.43406295776367
H 47.893157958984375 49.504337310791016 51.51962661743164
C 47.49201583862305 51.369163513183594 52.45407485961914
N 47.5272216796875 51.77052688598633 53.765472412109375
H 47.14638137817383 52.64168167114258 54.10923385620117
C 47.04288101196289 52.33575439453125 51.39811325073242
H 46.61412048339844 51.7841796875 50.562740325927734
C 47.32187271118164 53.63254928588867 51.12406921386719
C 46.572505950927734 54.56597137451172 50.345577239990234
H 45.6468391418457 54.28730392456055 49.85292053222656
C 47.20521545410156 55.741859436035156 50.41796112060547
H 46.84144592285156 56.715457916259766 50.10651779174805
C 48.31635284423828 55.620513916015625 51.24510192871094
N 48.4491081237793 54.279232025146484 51.583045959472656
C 49.32918930053711 56.662288665771484 51.63056182861328
C 49.62690353393555 56.82094192504883 52.95361328125
C 49.99537658691406 58.01089859008789 53.64847946166992
H 50.13908004760742 58.97959518432617 53.18136215209961
C 50.143985748291016 57.72954177856445 55.0399284362793
H 50.47626876831055 58.385406494140625 55.837833404541016
C 49.94975662231445 56.32160186767578 55.263450622558594
N 49.573707580566406 55.91361999511719 53.99021530151367
H 49.24516677856445 54.958560943603516 53.94496536254883
C 50.0606803894043 55.5810661315918 56.36599349975586
H 50.3726806640625 56.09562683105469 57.27362823486328
C 49.71424865722656 54.16400146484375 56.61944580078125
C 49.925086975097656 53.51578140258789 57.81813049316406
H 50.53428649902344 53.82447052001953 58.661231994628906
C 49.46975326538086 52.24289321899414 57.61962890625
H 49.56845474243164 51.413822174072266 58.312538146972656
C 48.84138488769531 52.227699279785156 56.39739990234375
N 49.063758850097656 53.34967041015625 55.73678207397461
C 52.13560485839844 57.86460494995117 48.568973541259766
C 52.42454528808594 58.09371566772461 49.933349609375
H 53.40620040893555 58.468177795410156 50.212100982666016
C 51.50102615356445 57.754241943359375 50.88645935058594
H 51.777565002441406 57.872493743896484 51.93102264404297
C 50.24697494506836 57.15470886230469 50.56302261352539
C 50.943817138671875 57.251373291015625 48.19921875
H 50.8598518371582 56.9719352722168 47.1521110534668
C 50.01861572265625 56.90884017944336 49.187625885009766
H 49.121726989746094 56.393699645996094 48.853271484375
N 53.1176643371582 58.155517578125 47.590641021728516
H 53.295326232910156 57.36284637451172 46.992149353027344
C 53.93315887451172 59.20384216308594 47.29779815673828
O 53.95991897583008 60.179927825927734 48.07027816772461
C 54.79730224609375 59.12153625488281 46.02631378173828
C 54.42341995239258 58.227020263671875 45.031227111816406
H 53.487918853759766 57.675514221191406 44.98381042480469
C 55.19415283203125 58.15680694580078 43.860538482666016
C 56.19356155395508 59.08515930175781 43.7120361328125
H 56.766788482666016 59.140018463134766 42.790096282958984
C 56.6593132019043 59.88398361206055 44.72700500488281
H 57.556400299072266 60.4962272644043 44.68269729614258
C 55.9011116027832 59.8863525390625 45.87141418457031
H 56.159423828125 60.5838737487793 46.6640739440918
C 54.91160583496094 57.237735748291016 42.795814514160156
H 54.08597183227539 56.556419372558594 42.9959602355957
C 55.55260467529297 57.04512023925781 41.63286209106445
H 56.477394104003906 57.60975646972656 41.5239143371582
C 55.29669952392578 56.1170768737793 40.525386810302734
C 56.4190673828125 55.830352783203125 39.6036491394043
H 55.90572738647461 55.651458740234375 38.656578063964844
H 57.03264617919922 54.984222412109375 39.91995620727539
H 57.06707000732422 56.689964294433594 39.42029571533203
C 54.117454528808594 55.509071350097656 40.39661407470703
H 53.373104095458984 55.888328552246094 41.0952033996582
C 53.77983474731445 54.359962463378906 39.54996871948242
H 54.64286804199219 53.772674560546875 39.239830017089844
C 52.54389190673828 53.92612075805664 39.22368240356445
H 51.7639045715332 54.59090042114258 39.591941833496094
C 52.1488151550293 52.748565673828125 38.43892288208008
C 50.69632339477539 52.663150787353516 38.375
H 50.25360107421875 53.62566375732422 38.1103630065918
H 50.392574310302734 52.03709030151367 37.533424377441406
H 50.313621520996094 52.45198059082031 39.375701904296875
C 52.92063522338867 51.73036575317383 37.875675201416016
H 53.971866607666016 51.980064392089844 37.739715576171875
C 52.48143768310547 50.558475494384766 37.1761474609375
H 51.53677749633789 50.11363983154297 37.485435485839844
C 53.06800842285156 49.97990798950195 36.135398864746094
H 53.98533248901367 50.42215347290039 35.74958419799805
C 52.434879302978516 48.84267044067383 35.41466522216797
H 51.39269256591797 48.73918914794922 35.713096618652344
C 52.847537994384766 48.08660125732422 34.34961700439453
C 54.23252487182617 48.37472152709961 33.87972640991211
H 54.99247360229492 47.85214614868164 34.464412689208984
H 54.32071304321289 48.09916687011719 32.82674789428711
H 54.454891204833984 49.43231964111328 34.036251068115234
C 52.06538772583008 47.132972717285156 33.59779357910156
H 52.52531814575195 46.810977935791016 32.66468048095703
C 50.92739486694336 46.612586975097656 33.97977828979492
H 50.61179733276367 46.80831527709961 35.00349807739258
C 50.090457916259766 45.7712287902832 33.14547348022461
H 50.405330657958984 45.843379974365234 32.10548400878906
C 49.09967803955078 44.916385650634766 33.388675689697266
C 48.567867279052734 44.81770706176758 34.811405181884766
H 47.851375579833984 45.631893157958984 34.93869400024414
H 48.29347610473633 43.80057907104492 35.09885025024414
H 49.394256591796875 44.995216369628906 35.502803802490234
C 48.33150100708008 44.2725715637207 32.24095916748047
H 48.800662994384766 44.48427200317383 31.281282424926758
C 47.15412902832031 43.61332702636719 32.29561996459961
H 46.72224426269531 43.49443817138672 33.28822326660156
C 46.52951431274414 42.92182159423828 31.158899307250977
C 47.213172912597656 41.973243713378906 30.431718826293945
C 48.583194732666016 41.37617874145508 30.7003116607666
H 49.010929107666016 41.793338775634766 31.61435890197754
H 48.48003387451172 40.293113708496094 30.794111251831055
H 49.24320983886719 41.58649826049805 29.85614585876465
C 46.58323669433594 41.19689178466797 29.347978591918945
H 46.225276947021484 40.219913482666016 29.679407119750977
H 47.37825012207031 40.97810363769531 28.632055282592773
C 45.43935775756836 41.9785041809082 28.664785385131836
H 44.982635498046875 41.33131408691406 27.913114547729492
H 45.84710693359375 42.75743865966797 28.017122268676758
C 44.47011947631836 42.45787811279297 29.82796287536621
H 43.519901275634766 42.874755859375 29.48772621154785
H 44.27045822143555 41.56880569458008 30.42976188659668
C 45.127662658691406 43.448524475097656 30.755319595336914
C 45.183956146240234 44.85216522216797 30.07232093811035
H 44.26041793823242 45.38143539428711 29.828584671020508
H 45.67414093017578 45.64884567260742 30.635778427124023
H 45.79218292236328 44.76286315917969 29.1697940826416
C 44.12068557739258 43.612186431884766 31.84615135192871
H 43.101566314697266 43.769676208496094 31.486913681030273
H 44.181270599365234 42.750850677490234 32.514652252197266
H 44.398677825927734 44.47831344604492 32.4503059387207
