207
Triad, Carotenoid-Porphyrin-C60
C 52.42662811279297 34.62895965576172 59.63180923461914
C 50.09426498413086 40.60834503173828 61.089176177978516
C 49.108097076416016 38.896080017089844 59.980560302734375
C 49.358699798583984 36.49076843261719 59.76222229003906
C 51.95005798339844 40.887611389160156 62.61056137084961
C 51.36598205566406 41.04786682128906 61.392799377441406
C 50.09822463989258 39.53639221191406 63.266197204589844
C 48.81542205810547 37.403167724609375 61.950923919677734
C 51.95525360107422 34.341033935546875 61.88405227661133
C 51.28864669799805 40.10053253173828 63.58187484741211
C 51.0792121887207 34.821434020996094 59.881099700927734
C 55.02543640136719 39.048492431640625 62.533180236816406
C 53.340354919433594 40.7762451171875 62.395511627197266
C 55.213768005371094 36.66058349609375 62.27649688720703
C 53.45110321044922 35.517005920410156 63.434974670410156
C 54.40087127685547 35.58363342285156 62.448951721191406
C 53.43226623535156 39.02959442138672 64.1163558959961
C 50.1203727722168 38.25165557861328 63.822235107421875
C 49.49311447143555 37.15101623535156 63.16453170776367
C 51.3409309387207 35.7476806640625 63.71738052368164
C 52.57422637939453 38.98558807373047 57.42533874511719
C 53.150474548339844 39.950584411621094 58.443504333496094
C 51.07159423828125 38.99467468261719 57.92525863647461
C 50.88175582885742 40.11652374267578 58.798866271972656
C 54.81409454345703 35.83123779296875 60.288116455078125
C 54.361289978027344 39.717445373535156 59.1430778503418
C 50.386253356933594 35.742393493652344 59.17375564575195
C 55.27052307128906 39.29203796386719 61.16787338256836
C 53.54437255859375 40.93402099609375 61.023643493652344
C 55.50700378417969 36.853363037109375 60.900020599365234
C 50.360389709472656 37.782859802246094 58.23123550415039
C 54.058082580566406 37.77519226074219 64.0821533203125
C 53.296058654785156 36.663673400878906 64.27974700927734
C 50.126590728759766 35.93897247314453 63.05818176269531
C 51.334083557128906 38.021575927734375 64.49967956542969
C 53.204627990722656 37.51243591308594 57.40203094482422
C 54.416595458984375 37.34870147705078 58.363487243652344
C 52.309295654296875 36.3382568359375 57.811588287353516
C 54.27496337890625 36.0836181640625 59.053619384765625
C 52.223968505859375 34.921875 63.162845611572266
C 52.13542175292969 40.553955078125 59.12226486206055
C 50.95809555053711 36.52375793457031 58.171775817871094
C 53.064910888671875 35.51513671875 58.7351188659668
C 49.4029426574707 37.743927001953125 59.22179412841797
C 54.16851806640625 35.009544372558594 61.21110534667969
C 54.990867614746094 38.44824981689453 59.06979751586914
C 54.571128845214844 40.24986267089844 60.41626739501953
C 49.903053283691406 40.05329132080078 59.825103759765625
C 52.312095642089844 41.05730438232422 60.418155670166016
C 51.915733337402344 36.76622009277344 64.4341812133789
C 55.53002166748047 38.16667175292969 60.36392593383789
C 52.951622009277344 34.40082550048828 60.89357376098633
C 49.472412109375 39.738494873046875 62.04832077026367
C 48.83818054199219 38.688323974609375 61.350074768066406
C 49.04276657104492 36.30470275878906 61.13720703125
C 50.75563430786133 34.63282012939453 61.23558807373047
C 54.06840515136719 39.83332061767578 63.12490463256836
C 55.06586456298828 37.779823303222656 63.0949592590332
C 49.80414581298828 35.38426208496094 61.82840347290039
C 52.053367614746094 39.214447021484375 64.37165832519531
C 52.83080291748047 39.513153076171875 56.018070220947266
N 53.51336669921875 38.72917938232422 55.31526184082031
C 53.616310119628906 37.38493347167969 55.89397048950195
H 54.61894226074219 37.000999450683594 55.68910598754883
H 52.93519592285156 36.71904754638672 55.35792541503906
C 51.44512939453125 43.21919250488281 54.11488723754883
C 50.60262680053711 42.54619598388672 55.0432014465332
H 49.643653869628906 42.96038818359375 55.343833923339844
C 51.07566452026367 41.36198425292969 55.65142059326172
H 50.36328887939453 40.82819366455078 56.27524948120117
C 52.36448669433594 40.774375915527344 55.41520309448242
C 52.676727294921875 42.64244079589844 53.868751525878906
H 53.32762145996094 43.16266632080078 53.17070770263672
C 53.07795715332031 41.43828582763672 54.42119598388672
H 54.057373046875 41.074378967285156 54.12139129638672
C 51.00665283203125 44.45948791503906 53.43848419189453
C 49.756263732910156 45.11357879638672 53.903228759765625
C 48.40504455566406 44.769439697265625 53.788082122802734
H 47.926795959472656 43.93333435058594 53.28865432739258
C 47.660213470458984 45.73707580566406 54.594207763671875
H 46.592960357666016 45.8094482421875 54.775760650634766
C 48.56552505493164 46.646759033203125 54.97085189819336
N 49.8122444152832 46.28228759765625 54.581687927246094
H 50.635276794433594 46.76219177246094 54.919952392578125
C 48.3439826965332 47.86463928222656 55.61144256591797
H 47.44108963012695 47.905250549316406 56.21894454956055
C 49.0082893371582 49.06333923339844 55.46255874633789
C 49.03812789916992 50.207794189453125 56.309810638427734
H 48.69138717651367 50.155479431152344 57.336585998535156
C 49.58002471923828 51.25274658203125 55.52972412109375
H 49.83740234375 52.239601135253906 55.899993896484375
C 49.90317916870117 50.70985412597656 54.267215728759766
N 49.50615310668945 49.448890686035156 54.21832275390625
C 50.4992790222168 51.344154357910156 53.06660842895508
C 51.54154586791992 50.69561004638672 52.37813186645508
C 52.709075927734375 51.27540588378906 51.80948257446289
H 52.92259216308594 52.33644104003906 51.73311996459961
C 53.402923583984375 50.28984069824219 51.13175582885742
H 54.24608612060547 50.546852111816406 50.49909973144531
C 52.71094512939453 49.05554962158203 51.28651428222656
N 51.68153762817383 49.37532043457031 52.110408782958984
H 51.19908142089844 48.56712341308594 52.479427337646484
C 53.11071014404297 47.86194610595703 50.86480712890625
H 53.88915252685547 47.91349792480469 50.105003356933594
C 52.60791015625 46.541839599609375 51.18703842163086
C 52.89653778076172 45.22984313964844 50.660037994384766
H 53.594818115234375 44.93951416015625 49.88200759887695
C 52.212242126464844 44.331336975097656 51.45511245727539
H 52.125144958496094 43.28038024902344 51.19990921020508
C 51.695220947265625 45.0673828125 52.45843505859375
N 51.8575439453125 46.385902404785156 52.29273223876953
C 48.37281036376953 54.69291687011719 51.26439666748047
C 49.41334533691406 54.0906982421875 50.6088981628418
H 49.784996032714844 54.64661407470703 49.751922607421875
C 50.144771575927734 53.034088134765625 51.22018814086914
H 50.983482360839844 52.683631896972656 50.62409973144531
C 49.76801300048828 52.485511779785156 52.47684860229492
C 47.9771842956543 54.174652099609375 52.446983337402344
H 47.17892074584961 54.704856872558594 52.960044860839844
C 48.68516159057617 53.095367431640625 53.08599853515625
H 48.260860443115234 52.78387451171875 54.03705596923828
N 47.70573043823242 55.82268524169922 50.73793029785156
H 47.27484893798828 55.75920104980469 49.82776641845703
C 47.46467208862305 56.970298767089844 51.400543212890625
O 47.87269973754883 57.15428924560547 52.59406280517578
C 46.54922866821289 57.94232940673828 50.68415832519531
C 46.39229965209961 57.82965850830078 49.29813766479492
H 46.89149475097656 57.05517578125 48.721458435058594
C 45.723045349121094 58.85376739501953 48.65439987182617
C 45.32622146606445 59.966636657714844 49.29609680175781
H 44.819026947021484 60.725791931152344 48.7061882019043
C 45.4285888671875 60.141090393066406 50.66681671142578
H 45.019569396972656 60.9974365234375 51.19686508178711
C 45.99184799194336 59.023521423339844 51.34619903564453
H 46.0753288269043 58.977378845214844 52.42900466918945
C 45.497413635253906 58.81513977050781 47.185081481933594
H 45.96375274658203 57.929222106933594 46.756591796875
C 44.68067169189453 59.560935974121094 46.36789321899414
H 44.05014419555664 60.32685089111328 46.817039489746094
C 44.559791564941406 59.43390655517578 44.907875061035156
C 43.52032470703125 60.34407043457031 44.288665771484375
H 44.09259796142578 61.26061248779297 44.13080978393555
H 42.757965087890625 60.517066955566406 45.05112075805664
H 43.197147369384766 59.958106994628906 43.319618225097656
C 45.30521774291992 58.53169250488281 44.15524673461914
H 46.07033157348633 57.897804260253906 44.60102081298828
C 45.31117630004883 58.361968994140625 42.6721305847168
H 44.76107406616211 59.202362060546875 42.25135040283203
C 45.80366516113281 57.32304382324219 41.967979431152344
H 46.3359375 56.48381042480469 42.41328430175781
C 45.77085876464844 57.140647888183594 40.551666259765625
C 46.939308166503906 56.4310302734375 40.0128173828125
H 47.67649459838867 56.39855194091797 40.81778335571289
H 46.571231842041016 55.478111267089844 39.62689971923828
H 47.291038513183594 57.19798278808594 39.31960678100586
C 44.794342041015625 57.546234130859375 39.74372100830078
H 43.88003921508789 57.970672607421875 40.15581512451172
C 44.86122512817383 57.40788269042969 38.30287551879883
H 45.68533706665039 56.87146759033203 37.83488082885742
C 43.85609436035156 57.808815002441406 37.504913330078125
H 42.99639892578125 58.23493957519531 38.01995849609375
C 43.862667083740234 57.63134002685547 36.10342025756836
H 44.80115509033203 57.177528381347656 35.78843307495117
C 42.94396209716797 57.82917785644531 35.21708297729492
C 41.51723861694336 58.314239501953125 35.418067932128906
H 41.342742919921875 58.51366424560547 36.4774284362793
H 41.18042755126953 59.17991638183594 34.843936920166016
H 40.786441802978516 57.55104064941406 35.14250564575195
C 43.22795486450195 57.442481994628906 33.86078643798828
H 42.32426071166992 57.2159423828125 33.29692459106445
C 44.37022018432617 57.25737762451172 33.186134338378906
H 45.2867431640625 57.388771057128906 33.75941467285156
C 44.2963752746582 56.83220672607422 31.812103271484375
H 43.3576774597168 56.523040771484375 31.354732513427734
C 45.29176330566406 56.92565155029297 30.867334365844727
C 46.6085319519043 57.280303955078125 31.319244384765625
H 47.34254837036133 57.123619079589844 30.52606964111328
H 46.528934478759766 58.320579528808594 31.641666412353516
H 46.863224029541016 56.64862060546875 32.172813415527344
C 45.13975524902344 56.64854431152344 29.501264572143555
H 46.12322998046875 56.55436706542969 29.043190002441406
C 44.07184982299805 56.43834686279297 28.75916862487793
H 43.12643814086914 56.557899475097656 29.2862606048584
C 44.066619873046875 56.172996520996094 27.335113525390625
C 44.744510650634766 55.12749481201172 26.86338233947754
C 45.6264762878418 54.16038513183594 27.640377044677734
H 45.50990295410156 54.12670135498047 28.725616455078125
H 45.418174743652344 53.15289306640625 27.274255752563477
H 46.656593322753906 54.519447326660156 27.591489791870117
C 44.640777587890625 54.657554626464844 25.40338897705078
H 43.80067443847656 53.964317321777344 25.481590270996094
H 45.57738494873047 54.128814697265625 25.21453094482422
C 44.36171340942383 55.881744384765625 24.48877716064453
H 44.179256439208984 55.615745544433594 23.44550132751465
H 45.1744270324707 56.600563049316406 24.612300872802734
C 43.10375213623047 56.477760314941406 25.004478454589844
H 42.763980865478516 57.30134582519531 24.373027801513672
H 42.3431396484375 55.696258544921875 25.060914993286133
C 43.214622497558594 57.147705078125 26.38608169555664
C 43.88531494140625 58.50566101074219 26.255931854248047
H 43.880027770996094 58.96080017089844 27.24854278564453
H 44.90016174316406 58.374542236328125 25.874679565429688
H 43.313690185546875 59.13775634765625 25.57316017150879
C 41.80323028564453 57.4403076171875 26.971580505371094
H 41.22637176513672 56.544097900390625 27.20930290222168
H 41.8746337890625 57.861572265625 27.976516723632812
H 41.224037170410156 58.200836181640625 26.44375228881836
