207
Triad, Carotenoid-Porphyrin-C60
C 42.29594421386719 45.16804122924805 37.89262008666992
C 42.08662033081055 51.481014251708984 36.93231964111328
C 43.454437255859375 50.02944564819336 35.95281982421875
C 43.49257278442383 47.628536224365234 35.60962677001953
C 39.93445587158203 51.6507453918457 38.0906982421875
C 41.30857849121094 51.783512115478516 38.12214660644531
C 40.026859283447266 50.792171478271484 35.82565689086914
C 41.62965774536133 48.96394729614258 34.62979507446289
C 40.45223617553711 45.35548782348633 36.69664001464844
C 39.26091003417969 51.161075592041016 36.96181869506836
C 42.64591979980469 45.64992904663086 36.644222259521484
C 38.69023895263672 49.21341323852539 40.3219108581543
C 39.579227447509766 51.184444427490234 39.34255599975586
C 38.77574920654297 46.85715103149414 39.95602798461914
C 38.49155807495117 46.3065071105957 37.64646530151367
C 38.8507194519043 45.92636489868164 38.95402908325195
C 37.96013641357422 49.78744125366211 38.2942008972168
C 39.475608825683594 49.64228439331055 35.269615173339844
C 40.27336120605469 48.738582611083984 34.663272857666016
C 38.9915657043457 46.99618148803711 35.59148025512695
C 44.370323181152344 48.95332717895508 39.958499908447266
C 43.252140045166016 49.86824417114258 40.42160415649414
C 44.4471549987793 49.329280853271484 38.50160217285156
C 43.752052307128906 50.46737289428711 38.31113052368164
C 40.756690979003906 45.804447174072266 40.225040435791016
C 42.135841369628906 49.41518020629883 41.1417121887207
C 43.67416000366211 46.57021713256836 36.513301849365234
C 39.850013732910156 49.07719802856445 41.115516662597656
C 40.726158142089844 51.100650787353516 40.15446090698242
C 39.87498092651367 46.75385665893555 40.788761138916016
C 44.54131317138672 48.40072250366211 37.477867126464844
C 37.67782211303711 48.38689041137695 38.47768020629883
C 37.84278869628906 47.47397994995117 37.433998107910156
C 40.093833923339844 47.35403823852539 34.84202194213867
C 38.27621078491211 49.31196212768555 35.93879699707031
C 44.1126708984375 47.40092849731445 40.20819854736328
C 42.7293586730957 47.05662155151367 40.80192947387695
C 44.02614212036133 46.5598258972168 38.94182205200195
C 42.1695556640625 45.979190826416016 40.16571044921875
C 39.24007034301758 45.99282455444336 36.537994384765625
C 43.01980209350586 50.80184555053711 39.453121185302734
C 44.318477630615234 47.05135726928711 37.65495681762695
C 42.96834945678711 45.65959548950195 39.0401496887207
C 43.98957061767578 48.75217819213867 36.21013259887695
C 40.09042739868164 45.20576858520508 39.08619689941406
C 41.84426498413086 48.03336715698242 41.25129699707031
C 40.884666442871094 50.046688079833984 41.02229309082031
C 43.289119720458984 50.91709518432617 37.0322151184082
C 41.82380676269531 51.52370071411133 39.36119079589844
C 38.04071807861328 47.92391586303711 36.109378814697266
C 40.46091842651367 47.86881637573242 41.339332580566406
C 40.9052619934082 44.9213752746582 37.932159423828125
C 41.37527084350586 50.98091506958008 35.81880187988281
C 42.25655746459961 50.08377456665039 35.17927932739258
C 42.329654693603516 47.70309829711914 34.78883743286133
C 41.51063537597656 45.70307540893555 35.86921691894531
C 38.60862731933594 50.21445846557617 39.38645935058594
C 38.12830352783203 48.080570220947266 39.73843002319336
C 41.32265853881836 46.74087905883789 34.92219543457031
C 38.26523208618164 50.22915267944336 37.02883529663086
C 45.6811637878418 49.20354080200195 40.611167907714844
N 46.17093276977539 48.15824508666992 41.18902587890625
C 45.28017044067383 46.9770393371582 41.066646575927734
H 45.003822326660156 46.79087448120117 42.10762023925781
H 45.80222702026367 46.10026931762695 40.67502212524414
C 47.8753547668457 52.961368560791016 40.56049728393555
C 46.654457092285156 52.84610366821289 41.17655563354492
H 46.06282424926758 53.63752365112305 41.62954330444336
C 45.94416046142578 51.62960433959961 41.0842170715332
H 44.971885681152344 51.57500076293945 41.56719970703125
C 46.39908981323242 50.5168571472168 40.49998092651367
C 48.40724182128906 51.81648635864258 40.0054817199707
H 49.47632598876953 51.84714126586914 39.81134796142578
C 47.66782760620117 50.63796615600586 39.9339599609375
H 48.130340576171875 49.696292877197266 39.64949035644531
C 48.60923385620117 54.27676010131836 40.53646469116211
C 48.197547912597656 55.3718376159668 41.30025863647461
C 46.96786880493164 56.093753814697266 41.40105438232422
H 46.148067474365234 55.88252639770508 40.72243118286133
C 47.246891021728516 57.08823776245117 42.342872619628906
H 46.57327651977539 57.88216018676758 42.6480827331543
C 48.421592712402344 56.918643951416016 42.9528923034668
N 48.96794509887695 55.7968635559082 42.34537124633789
H 49.79375457763672 55.3254280090332 42.688743591308594
C 49.0246467590332 57.61049270629883 44.08972930908203
H 48.33268737792969 58.29884719848633 44.572723388671875
C 50.32417678833008 57.66505813598633 44.42505645751953
C 50.9537467956543 58.59697341918945 45.36050033569336
H 50.43606948852539 59.4322395324707 45.82045364379883
C 52.25458526611328 58.20317459106445 45.42923355102539
H 53.039608001708984 58.662654876708984 46.02070617675781
C 52.37775802612305 57.02444839477539 44.631248474121094
N 51.22645568847656 56.760562896728516 43.95924377441406
C 53.60157012939453 56.34794998168945 44.295982360839844
C 54.02305221557617 56.20619583129883 42.969635009765625
C 55.19596862792969 56.5457878112793 42.20807647705078
H 56.078086853027344 56.98897933959961 42.658267974853516
C 55.02103042602539 56.41703414916992 40.852012634277344
H 55.665428161621094 56.6171989440918 40.002357482910156
C 53.760902404785156 55.818294525146484 40.6674690246582
N 53.21939468383789 55.82265090942383 41.89908218383789
H 52.29196548461914 55.427059173583984 41.973323822021484
C 53.21951675415039 55.39384841918945 39.55939483642578
H 53.868587493896484 55.457828521728516 38.68730926513672
C 51.87533187866211 54.89015579223633 39.3774528503418
C 51.26165008544922 54.31478500366211 38.202354431152344
H 51.739768981933594 54.15572738647461 37.241455078125
C 49.98005676269531 54.0383186340332 38.600379943847656
H 49.22164535522461 53.48331832885742 38.05815124511719
C 49.8458137512207 54.403079986572266 39.87947463989258
N 50.96827697753906 54.90456771850586 40.3234977722168
C 55.786251068115234 54.45064163208008 47.536537170410156
C 56.127471923828125 54.262020111083984 46.227630615234375
H 56.99665451049805 53.62636947631836 46.07915496826172
C 55.465293884277344 54.862545013427734 45.20322799682617
H 55.71303176879883 54.78330612182617 44.147804260253906
C 54.364891052246094 55.709774017333984 45.4684944152832
C 54.699161529541016 55.22829818725586 47.8177604675293
H 54.481101989746094 55.417911529541016 48.86565017700195
C 53.976253509521484 55.81019973754883 46.81218338012695
H 53.0874137878418 56.36623001098633 47.099178314208984
N 56.50776672363281 53.82509231567383 48.56660842895508
H 55.944732666015625 53.216304779052734 49.141456604003906
C 57.864463806152344 53.86677169799805 48.697147369384766
O 58.555233001708984 54.4984245300293 47.97322463989258
C 58.380287170410156 53.02939224243164 49.74018478393555
C 57.56336975097656 52.61433029174805 50.76921081542969
H 56.55868148803711 53.013248443603516 50.88336181640625
C 58.11272048950195 51.926578521728516 51.86472702026367
C 59.49873352050781 51.645694732666016 51.866764068603516
H 59.932533264160156 51.16526412963867 52.740020751953125
C 60.27545928955078 51.96303939819336 50.77372741699219
H 61.32862091064453 51.6967658996582 50.73473358154297
C 59.7119026184082 52.64103317260742 49.75414276123047
H 60.28593063354492 52.9914665222168 48.90017318725586
C 57.237396240234375 51.53739547729492 52.93617630004883
H 56.22637176513672 51.88870620727539 52.73536682128906
C 57.455162048339844 50.79059982299805 54.042476654052734
H 58.472808837890625 50.410526275634766 54.1190299987793
C 56.513980865478516 50.31389236450195 55.022403717041016
C 55.263240814208984 51.16001510620117 55.23927688598633
H 55.37258529663086 52.18068313598633 54.866790771484375
H 55.10443115234375 51.269100189208984 56.31414794921875
H 54.38554000854492 50.684505462646484 54.79656219482422
C 56.84916687011719 49.24467086791992 55.7426872253418
H 57.76483917236328 48.706363677978516 55.502506256103516
C 55.9765739440918 48.676265716552734 56.77537155151367
H 54.93104934692383 48.914485931396484 56.58550262451172
C 56.22907257080078 47.74360275268555 57.730072021484375
H 57.24361038208008 47.37331771850586 57.86979293823242
C 55.253501892089844 47.17533493041992 58.61297607421875
C 54.01929473876953 47.954898834228516 58.879302978515625
H 53.10545349121094 47.48801040649414 58.5059814453125
H 53.924041748046875 48.08205795288086 59.959686279296875
H 54.14914321899414 48.99396896362305 58.56957244873047
C 55.36469268798828 46.015377044677734 59.277469635009766
H 56.1732063293457 45.338138580322266 59.00620651245117
C 54.3836784362793 45.39042282104492 60.18373489379883
H 53.496971130371094 45.96323013305664 60.45125198364258
C 54.449893951416016 44.16453170776367 60.635597229003906
H 55.28885269165039 43.54024124145508 60.33173751831055
C 53.451011657714844 43.573917388916016 61.57762908935547
H 52.724143981933594 44.240962982177734 62.038753509521484
C 53.42039108276367 42.25271987915039 61.86690902709961
C 54.38637161254883 41.239505767822266 61.24483108520508
H 54.24763488769531 40.236141204833984 61.65285873413086
H 54.237892150878906 41.1107063293457 60.1706657409668
H 55.40995407104492 41.53962326049805 61.478660583496094
C 52.44679260253906 41.64278030395508 62.734397888183594
H 52.213218688964844 40.59760665893555 62.53700637817383
C 51.87086486816406 42.1450309753418 63.817745208740234
H 52.17170715332031 43.148990631103516 64.113525390625
C 50.8621940612793 41.40666580200195 64.58450317382812
H 50.632694244384766 40.4016227722168 64.23358917236328
C 50.263336181640625 41.7509880065918 65.7537612915039
C 50.63115310668945 43.08613967895508 66.30945587158203
H 50.499393463134766 43.841556549072266 65.53199768066406
H 50.10236740112305 43.372493743896484 67.2209701538086
H 51.70402145385742 43.10325241088867 66.51226043701172
C 49.15948486328125 41.1334114074707 66.45828247070312
H 48.749019622802734 41.810733795166016 67.20572662353516
C 48.633995056152344 39.928951263427734 66.3503189086914
H 49.045738220214844 39.29684829711914 65.56493377685547
C 47.61802291870117 39.28828048706055 67.10319519042969
C 47.510284423828125 39.48855209350586 68.46532440185547
C 48.5220832824707 40.30356979370117 69.30115509033203
H 48.265098571777344 41.357234954833984 69.42842864990234
H 48.58977127075195 39.90717697143555 70.31641387939453
H 49.46418762207031 40.3311653137207 68.74966430664062
C 46.42190170288086 38.95322799682617 69.30116271972656
H 45.75677490234375 39.737552642822266 69.66847229003906
H 46.873191833496094 38.45172882080078 70.15982055664062
C 45.61615753173828 37.80905532836914 68.62793731689453
H 44.6370735168457 37.541893005371094 69.03103637695312
H 46.22023391723633 36.89952850341797 68.64571380615234
C 45.333675384521484 38.17349624633789 67.17211151123047
H 44.740211486816406 37.37395095825195 66.72378540039062
H 44.77141189575195 39.10885238647461 67.13420867919922
C 46.57306671142578 38.402305603027344 66.31637573242188
C 47.190696716308594 37.04483413696289 65.88780975341797
H 47.64423751831055 36.552616119384766 66.75064849853516
H 46.39397048950195 36.38813018798828 65.53223419189453
H 47.9249267578125 37.09870910644531 65.081298828125
C 46.20207977294922 38.91044998168945 64.94744873046875
H 45.688499450683594 39.87100601196289 65.02505493164062
H 47.12883377075195 39.09835433959961 64.40129852294922
H 45.58708953857422 38.21335220336914 64.37447357177734
