207
Triad, Carotenoid-Porphyrin-C60
C 44.137088775634766 43.10218048095703 65.39102172851562
C 47.193946838378906 48.65144729614258 66.6075668334961
C 45.21329879760742 48.40236282348633 65.70217895507812
C 43.59670639038086 46.621639251708984 65.64263916015625
C 48.83563995361328 47.44221878051758 67.97350311279297
C 48.451255798339844 48.014442443847656 66.7322006225586
C 46.62476348876953 47.98429870605469 68.85955810546875
C 44.03862380981445 47.64698028564453 67.7918472290039
C 43.901771545410156 43.30729675292969 67.62389373779297
C 47.88440704345703 47.379146575927734 68.9763412475586
C 43.31513214111328 44.255245208740234 65.67969512939453
C 49.428855895996094 43.90319061279297 67.79625701904297
C 49.58647155761719 46.27925491333008 67.68751525878906
C 47.698272705078125 42.254459381103516 67.71161651611328
C 45.78656768798828 42.85585403442383 69.0296859741211
C 46.35748291015625 42.12125015258789 67.99606323242188
C 48.52626419067383 45.129127502441406 69.52291107177734
C 45.69703674316406 47.18559265136719 69.47700500488281
C 44.432891845703125 47.053897857666016 68.95693969726562
C 44.538936614990234 44.72036361694336 69.45271301269531
C 47.19395446777344 45.772403717041016 62.87499237060547
C 48.399497985839844 45.884151458740234 63.837738037109375
C 46.33469009399414 46.92181396484375 63.481239318847656
C 47.107421875 47.70351028442383 64.3639144897461
C 46.63104248046875 41.993003845214844 65.7551040649414
C 49.074615478515625 44.821956634521484 64.43806457519531
C 43.51303482055664 45.42701721191406 64.93923950195312
C 49.56797409057617 43.89384460449219 66.4345474243164
C 49.74496841430664 46.25968933105469 66.34346008300781
C 47.89125442504883 42.21540069580078 66.38166809082031
C 45.053924560546875 46.73517608642578 63.921241760253906
C 47.9771728515625 43.84528732299805 69.52592468261719
C 46.58608627319336 43.746604919433594 69.74687194824219
C 43.84670639038086 45.77597427368164 68.94790649414062
C 46.351078033447266 46.16086196899414 70.01305389404297
C 46.55538558959961 44.35185241699219 62.89490509033203
C 47.286041259765625 43.326446533203125 63.80078125
C 45.19118881225586 44.336307525634766 63.56037139892578
C 46.35342788696289 42.67171859741211 64.50880432128906
C 44.55971908569336 43.47315979003906 68.85257720947266
C 48.34054183959961 47.10282516479492 64.60403442382812
C 44.436031341552734 45.47808074951172 63.85649871826172
C 45.072349548339844 43.200927734375 64.34566497802734
C 44.48720932006836 47.46365737915039 64.99337005615234
C 45.66862106323242 41.90061950683594 66.77509307861328
C 48.54701232910156 43.55195617675781 64.474853515625
C 49.747528076171875 45.03867721557617 65.6337890625
C 46.52119064331055 48.5147819519043 65.38243103027344
C 49.002891540527344 47.29500198364258 65.76441192626953
C 45.81439208984375 44.90023422241211 69.98554992675781
C 48.855186462402344 42.91975784301758 65.67621612548828
C 44.42116165161133 42.516441345214844 66.61637115478516
C 46.282936096191406 48.56077575683594 67.61649322509766
C 45.01298904418945 48.37784194946289 67.08078002929688
C 43.30854034423828 46.727874755859375 67.02379608154297
C 43.07648468017578 44.32188415527344 67.05607604980469
C 49.40165710449219 45.13444900512695 68.45584869384766
C 48.53201675415039 43.07844924926758 68.49768829345703
C 43.10612106323242 45.57568359375 67.7387466430664
C 47.717498779296875 46.233585357666016 69.77157592773438
C 47.58812713623047 45.98750305175781 61.48991394042969
N 47.30685043334961 45.00980758666992 60.73859405517578
C 46.5307731628418 43.99003982543945 61.44080352783203
H 47.024662017822266 43.036521911621094 61.237022399902344
H 45.513893127441406 43.969329833984375 61.04058074951172
C 50.283870697021484 49.1005744934082 59.995880126953125
C 50.60350036621094 47.713191986083984 59.994117736816406
H 51.54237747192383 47.32343292236328 59.60919189453125
C 49.824249267578125 46.7287712097168 60.52885437011719
H 50.19753646850586 45.71406173706055 60.64104461669922
C 48.55965805053711 47.04167556762695 61.1038818359375
C 49.05535125732422 49.377262115478516 60.61919403076172
H 48.6845817565918 50.395545959472656 60.70404815673828
C 48.178627014160156 48.40184020996094 61.144508361816406
H 47.19309997558594 48.66126251220703 61.522674560546875
C 51.00937271118164 50.18285369873047 59.186729431152344
C 52.02693176269531 49.58412551879883 58.31266784667969
C 53.40187454223633 49.228118896484375 58.52667236328125
H 53.974761962890625 49.36128234863281 59.43842315673828
C 53.86375045776367 48.7413444519043 57.26759338378906
H 54.807044982910156 48.30284881591797 56.959136962890625
C 52.943294525146484 48.93656921386719 56.265235900878906
N 51.860626220703125 49.441165924072266 56.9326171875
H 51.004241943359375 49.584815979003906 56.414833068847656
C 53.04249572753906 48.810211181640625 54.812767028808594
H 54.018314361572266 48.45075988769531 54.489501953125
C 52.1960334777832 49.36395263671875 53.916664123535156
C 51.75304412841797 48.67411422729492 52.78465270996094
H 51.941402435302734 47.618160247802734 52.62123107910156
C 50.9055290222168 49.507728576660156 52.120338439941406
H 50.40296936035156 49.281734466552734 51.18568420410156
C 50.88509750366211 50.78915786743164 52.84581756591797
N 51.7044792175293 50.66234588623047 53.90174102783203
C 50.08669662475586 52.00175094604492 52.5872802734375
C 49.78730392456055 52.94278335571289 53.56024932861328
C 49.622833251953125 54.383487701416016 53.46588897705078
H 49.60640335083008 54.877296447753906 52.499916076660156
C 49.657814025878906 55.11090850830078 54.63981628417969
H 49.49939727783203 56.15970993041992 54.8681640625
C 49.753753662109375 54.07209014892578 55.68989562988281
N 49.90401077270508 52.88318634033203 54.95579528808594
H 50.00053787231445 52.024864196777344 55.481231689453125
C 49.67222595214844 54.294620513916016 57.051307678222656
H 49.54772186279297 55.31489562988281 57.411109924316406
C 50.04585647583008 53.313209533691406 58.12493133544922
C 50.07476043701172 53.52703857421875 59.480567932128906
H 49.8785514831543 54.44853591918945 60.01868438720703
C 50.396366119384766 52.31541061401367 60.03535461425781
H 50.650787353515625 52.184024810791016 61.081886291503906
C 50.533058166503906 51.486995697021484 59.02564239501953
N 50.42704391479492 52.07310485839844 57.863075256347656
C 48.720272064208984 52.51911163330078 48.48643493652344
C 48.15424346923828 53.18042755126953 49.579376220703125
H 47.376827239990234 53.89211654663086 49.31349182128906
C 48.521888732910156 52.996803283691406 50.8826904296875
H 47.9049072265625 53.36792755126953 51.697044372558594
C 49.58285903930664 52.17668151855469 51.18626403808594
C 49.9135627746582 51.81925582885742 48.75636291503906
H 50.293121337890625 51.2681884765625 47.89972686767578
C 50.26917266845703 51.58843231201172 50.07952880859375
H 51.17367172241211 51.025413513183594 50.295082092285156
N 48.15805435180664 52.52040100097656 47.187713623046875
H 47.15333938598633 52.4473991394043 47.13024139404297
C 48.747947692871094 52.66034698486328 45.963218688964844
O 49.98744201660156 52.687198638916016 45.762176513671875
C 47.765296936035156 52.729793548583984 44.85200119018555
C 48.18877410888672 52.7486457824707 43.4589958190918
H 49.243186950683594 52.638675689697266 43.21881866455078
C 47.261077880859375 52.80105209350586 42.413394927978516
C 45.92805862426758 52.91015625 42.711307525634766
H 45.33232116699219 52.876136779785156 41.802730560302734
C 45.452091217041016 52.95406723022461 44.041748046875
H 44.3864631652832 53.14208221435547 44.14496612548828
C 46.3500862121582 52.891380310058594 45.0804328918457
H 46.00117492675781 52.94144821166992 46.10869598388672
C 47.759498596191406 52.776058197021484 41.004940032958984
H 48.83531188964844 52.62036895751953 40.9392204284668
C 47.05764389038086 52.732421875 39.874698638916016
H 45.97258377075195 52.64455795288086 39.903831481933594
C 47.54589080810547 52.513362884521484 38.52454376220703
C 48.90810012817383 52.83455276489258 38.204742431640625
H 49.48271560668945 53.32929992675781 38.99055862426758
H 48.99692153930664 53.41708755493164 37.28538131713867
H 49.52054214477539 51.97386932373047 37.9279670715332
C 46.688472747802734 51.934898376464844 37.67427444458008
H 45.63869857788086 51.888145446777344 37.96012496948242
C 47.00422668457031 51.431217193603516 36.300811767578125
H 47.99503707885742 51.67658996582031 35.92133331298828
C 46.21410369873047 50.589027404785156 35.63713836669922
H 45.29319763183594 50.22671127319336 36.09165954589844
C 46.49299621582031 49.963253021240234 34.317195892333984
C 45.49961853027344 48.920997619628906 33.88316345214844
H 45.90553283691406 47.91712188720703 33.742008209228516
H 44.63823318481445 48.8083610534668 34.544822692871094
H 45.10966491699219 49.1872444152832 32.898521423339844
C 47.439476013183594 50.412174224853516 33.48784255981445
H 48.08006286621094 51.17094039916992 33.93489456176758
C 47.74555969238281 49.95954132080078 32.126548767089844
H 47.491188049316406 48.91395568847656 31.959312438964844
C 48.33866882324219 50.687923431396484 31.160736083984375
H 48.57679748535156 51.72718048095703 31.382457733154297
C 48.78730010986328 50.25753402709961 29.894947052001953
H 48.739524841308594 49.1912841796875 29.678714752197266
C 49.423282623291016 51.002498626708984 29.012928009033203
C 49.71953582763672 52.49296951293945 29.19391632080078
H 50.00083923339844 52.937744140625 28.23708724975586
H 48.78670883178711 52.996315002441406 29.456485748291016
H 50.37250518798828 52.696590423583984 30.045169830322266
C 49.840965270996094 50.44551086425781 27.672340393066406
H 50.75727081298828 50.891117095947266 27.287975311279297
C 49.3931999206543 49.398643493652344 27.001659393310547
H 48.39803695678711 49.11176300048828 27.338218688964844
C 49.85363006591797 48.84906768798828 25.791797637939453
H 50.81156539916992 49.3168830871582 25.5694580078125
C 49.20542526245117 48.06810760498047 24.891620635986328
C 47.7333984375 47.780269622802734 25.159183502197266
H 47.50221633911133 47.55558776855469 26.2025146484375
H 47.154361724853516 48.67273712158203 24.912845611572266
H 47.556968688964844 46.87773513793945 24.5703125
C 49.76483154296875 47.541507720947266 23.661819458007812
H 49.117191314697266 46.864017486572266 23.107295989990234
C 51.00563049316406 47.75028991699219 23.17641830444336
H 51.72832107543945 48.29082107543945 23.78589630126953
C 51.59626770019531 47.42538833618164 21.86815643310547
C 50.8797492980957 47.24559020996094 20.773841857910156
C 49.41477584838867 47.36531448364258 20.589130401611328
H 49.340110778808594 47.70573043823242 19.55423355102539
H 48.900909423828125 46.4030647277832 20.638916015625
H 49.054931640625 48.07160568237305 21.340221405029297
C 51.53114700317383 46.84843063354492 19.5494384765625
H 51.645294189453125 47.6982307434082 18.873214721679688
H 50.941802978515625 46.13016128540039 18.97565460205078
C 52.82854080200195 46.06919860839844 19.882564544677734
H 53.19257354736328 45.901607513427734 18.86676025390625
H 52.58855056762695 45.13494110107422 20.394458770751953
C 53.66684341430664 46.98149108886719 20.604736328125
H 54.73564910888672 46.75809860229492 20.61953353881836
H 53.764747619628906 47.932064056396484 20.076255798339844
C 53.08331298828125 47.1800537109375 22.009929656982422
C 53.395999908447266 45.97170639038086 22.822265625
H 52.56559371948242 45.2883415222168 22.632789611816406
H 54.29713821411133 45.41033935546875 22.566761016845703
H 53.25822830200195 46.062255859375 23.901748657226562
C 53.86845397949219 48.25118637084961 22.662750244140625
H 53.68775177001953 48.325279235839844 23.737144470214844
H 54.92649459838867 48.00231170654297 22.557510375976562
H 53.604312896728516 49.211524963378906 22.215030670166016
