207
Triad, Carotenoid-Porphyrin-C60
C 60.33640670776367 63.397605895996094 45.1033935546875
C 55.95650100708008 60.84728240966797 41.17529296875
C 55.56741714477539 62.22919464111328 42.997318267822266
C 56.934268951416016 63.787315368652344 44.24757766723633
C 57.68491744995117 60.27674865722656 39.73396301269531
C 56.78024673461914 59.87579345703125 40.622596740722656
C 56.864498138427734 62.53016662597656 39.71707534790039
C 56.49758529663086 64.28581237792969 41.88959884643555
C 60.661197662353516 64.76639556884766 43.32478332519531
C 57.7432975769043 61.5355224609375 39.24406433105469
C 59.200016021728516 64.20458984375 44.94966125488281
C 61.10007858276367 59.974395751953125 40.538326263427734
C 58.86588668823242 59.517295837402344 39.88555908203125
C 62.38200759887695 61.52214050292969 41.809112548828125
C 61.67641830444336 63.7889404296875 41.32961654663086
C 62.295597076416016 62.827430725097656 42.1981086730957
C 60.1744499206543 61.45825958251953 39.114471435546875
C 57.56583786010742 63.775726318359375 39.831573486328125
C 57.372989654541016 64.7061767578125 40.887935638427734
C 59.80489730834961 64.8926773071289 41.11507034301758
C 57.89545822143555 59.36529541015625 45.038795471191406
C 58.153873443603516 58.75148010253906 43.7313117980957
C 56.752193450927734 60.302490234375 44.678768157958984
C 56.31960678100586 59.92498016357422 43.40119552612305
C 62.024295806884766 61.53910827636719 44.014503479003906
C 59.47079849243164 58.53876495361328 43.2154655456543
C 57.94102096557617 63.60558319091797 45.207603454589844
C 60.92885208129883 59.126792907714844 41.63851547241211
C 58.640079498291016 58.72901916503906 41.01601791381836
C 62.254642486572266 60.69152069091797 42.946048736572266
C 56.66108322143555 61.65161895751953 45.073123931884766
C 61.29133224487305 62.05902099609375 39.66963195800781
C 61.14442825317383 63.36688232421875 40.091983795166016
C 58.54775619506836 65.17411804199219 41.58149337768555
C 58.8436393737793 63.51322937011719 39.32492446899414
C 59.138118743896484 60.03807067871094 45.76607894897461
C 60.38886642456055 59.8914794921875 44.95234298706055
C 59.0151252746582 61.522491455078125 45.89860534667969
C 61.03904342651367 61.152374267578125 44.938926696777344
C 60.84189987182617 64.68231201171875 41.98487091064453
C 57.0975227355957 58.94093322753906 42.84601974487305
C 57.7949333190918 62.29151916503906 45.72579574584961
C 60.24263381958008 62.1097412109375 45.51518630981445
C 56.15256881713867 62.62422180175781 44.19674301147461
C 62.10995101928711 62.83966827392578 43.552066802978516
C 60.5993537902832 59.107261657714844 43.840023040771484
C 59.720943450927734 58.502044677734375 41.880496978759766
C 55.73171615600586 60.893028259277344 42.56055450439453
C 57.33469772338867 58.90966033935547 41.49544906616211
C 59.95760726928711 64.10151672363281 39.9495964050293
C 61.44491958618164 59.53129577636719 42.85791015625
C 61.25678634643555 63.78870391845703 44.129085540771484
C 56.05838394165039 62.178123474121094 40.78477478027344
C 55.81709671020508 63.04792785644531 41.8370361328125
C 57.131656646728516 64.59122467041016 43.08295440673828
C 59.39677047729492 65.08390045166016 43.862937927246094
C 60.09359359741211 60.1673583984375 39.630558013916016
C 61.857120513916016 61.117774963378906 40.55977249145508
C 58.33896255493164 65.23046112060547 42.93864822387695
C 58.967655181884766 62.175262451171875 38.92040252685547
C 57.4721565246582 58.32312774658203 46.05436325073242
N 58.27809524536133 58.27276611328125 47.06039047241211
C 59.255069732666016 59.372314453125 47.13859939575195
H 60.19013595581055 58.81275939941406 47.22341537475586
H 59.05776596069336 59.92823791503906 48.05874252319336
C 55.323482513427734 54.673789978027344 44.728816986083984
C 56.5353889465332 54.617088317871094 45.5029296875
H 57.10348129272461 53.69444274902344 45.5899772644043
C 57.214168548583984 55.80702209472656 45.88589859008789
H 58.15837478637695 55.76494598388672 46.42281723022461
C 56.643001556396484 57.049888610839844 45.685298919677734
C 54.69645309448242 55.957115173339844 44.67982482910156
H 53.713748931884766 55.97172546386719 44.21544647216797
C 55.442874908447266 57.10387420654297 45.03356170654297
H 54.89394760131836 58.03364562988281 44.9079475402832
C 54.6629753112793 53.392738342285156 44.293975830078125
C 55.33151626586914 52.15235137939453 44.750736236572266
C 56.5583381652832 51.61125946044922 44.4876823425293
H 57.308963775634766 52.06493377685547 43.84895706176758
C 56.6545524597168 50.263427734375 44.8292236328125
H 57.46535873413086 49.563941955566406 44.65449142456055
C 55.470279693603516 49.98420715332031 45.423126220703125
N 54.663516998291016 51.04790496826172 45.31205749511719
H 53.74673080444336 51.032020568847656 45.73793411254883
C 54.95280075073242 48.73089599609375 45.86079788208008
H 55.80697250366211 48.07173156738281 46.00851058959961
C 53.65690231323242 48.382484436035156 46.20103073120117
C 53.37215805053711 46.996376037597656 46.5949821472168
H 54.02737808227539 46.135894775390625 46.68149185180664
C 52.00154495239258 46.988426208496094 46.63950729370117
H 51.34391403198242 46.137786865234375 46.78494644165039
C 51.56742477416992 48.31431579589844 46.610538482666016
N 52.556514739990234 49.15159606933594 46.284603118896484
C 50.12813949584961 48.77123260498047 46.637943267822266
C 49.656307220458984 49.67322540283203 45.67951583862305
C 48.4426155090332 49.636749267578125 45.011600494384766
H 47.65227127075195 48.909202575683594 45.16411209106445
C 48.45082473754883 50.65830993652344 44.093544006347656
H 47.654056549072266 50.97417449951172 43.42824935913086
C 49.688411712646484 51.34418487548828 44.102378845214844
N 50.31782913208008 50.640037536621094 45.107337951660156
H 51.174625396728516 50.997825622558594 45.50735092163086
C 50.159549713134766 52.241294860839844 43.178924560546875
H 49.4478874206543 52.494972229003906 42.39463424682617
C 51.48788070678711 52.838417053222656 43.0528678894043
C 51.96541976928711 53.74830627441406 42.01698684692383
H 51.46610641479492 54.123558044433594 41.12980651855469
C 53.2645149230957 54.03111267089844 42.435482025146484
H 54.07527542114258 54.65393829345703 42.07219314575195
C 53.44423294067383 53.403526306152344 43.62449645996094
N 52.41392135620117 52.631072998046875 43.96147155761719
C 48.321231842041016 48.289710998535156 50.63028335571289
C 47.57699966430664 48.886474609375 49.61359786987305
H 46.636661529541016 49.38255310058594 49.839969635009766
C 48.10166549682617 49.064964294433594 48.3146858215332
H 47.536380767822266 49.628196716308594 47.57658767700195
C 49.389888763427734 48.55278778076172 47.949275970458984
C 49.54268264770508 47.73359680175781 50.30575180053711
H 50.12632369995117 47.20435333251953 51.05463790893555
C 50.0053825378418 47.77074432373047 48.94487380981445
H 51.0009880065918 47.36991882324219 48.77263259887695
N 47.75899124145508 48.14623260498047 51.98215866088867
H 46.78571701049805 47.967185974121094 52.17902755737305
C 48.448604583740234 48.191871643066406 53.14592361450195
O 49.583683013916016 48.52344512939453 53.13937759399414
C 47.76694107055664 47.75184631347656 54.42703628540039
C 46.98945999145508 46.613258361816406 54.4755744934082
H 46.79838180541992 46.066490173339844 53.55573654174805
C 46.35221481323242 46.286155700683594 55.62052536010742
C 46.5088996887207 47.06658935546875 56.77824020385742
H 46.12069320678711 46.65015411376953 57.704227447509766
C 47.283634185791016 48.25938415527344 56.794498443603516
H 47.36603927612305 48.88341522216797 57.68070602416992
C 47.96732711791992 48.521263122558594 55.5909538269043
H 48.383296966552734 49.514427185058594 55.442073822021484
C 45.535160064697266 45.05657196044922 55.648380279541016
H 45.5766487121582 44.537925720214844 54.691707611083984
C 44.73014450073242 44.56481170654297 56.59988021850586
H 44.62436294555664 45.12956237792969 57.52497482299805
C 43.899166107177734 43.399017333984375 56.57424545288086
C 43.04428482055664 43.32451629638672 57.71616744995117
H 43.077091217041016 44.085533142089844 58.49862289428711
H 43.4821891784668 42.445350646972656 58.193424224853516
H 42.0305061340332 43.091819763183594 57.383670806884766
C 43.80422592163086 42.57655334472656 55.53945541381836
H 44.24161148071289 42.69268035888672 54.5489387512207
C 42.9241828918457 41.439491271972656 55.46747970581055
H 42.488346099853516 41.09124755859375 56.40273666381836
C 42.7189826965332 40.815887451171875 54.31599807739258
H 43.20956039428711 41.16319274902344 53.40790939331055
C 41.717655181884766 39.728424072265625 54.08694076538086
C 41.27450942993164 39.581825256347656 52.66086196899414
H 42.18784713745117 39.298797607421875 52.13344955444336
H 40.62686538696289 38.72022247314453 52.48576736450195
H 40.875980377197266 40.533668518066406 52.3036003112793
C 41.40082931518555 38.81993103027344 54.9904899597168
H 41.79604721069336 38.993919372558594 55.99021530151367
C 40.49447250366211 37.68840789794922 54.86027908325195
H 40.48874282836914 37.074241638183594 53.961002349853516
C 39.696712493896484 37.349998474121094 55.84193801879883
H 39.5875129699707 37.991241455078125 56.7153205871582
C 38.83839797973633 36.193077087402344 55.70198440551758
H 38.837711334228516 35.65095520019531 54.757511138916016
C 37.98600387573242 35.692901611328125 56.582218170166016
C 37.854068756103516 36.33030700683594 57.92098617553711
H 37.6946907043457 37.41057586669922 57.912654876708984
H 37.03641891479492 35.818695068359375 58.43301010131836
H 38.69486618041992 36.09144592285156 58.575557708740234
C 37.07937240600586 34.5838623046875 56.42770767211914
H 36.393314361572266 34.343597412109375 57.23859786987305
C 36.852169036865234 33.80548858642578 55.358455657958984
H 37.48287582397461 33.85438537597656 54.472042083740234
C 35.710811614990234 32.84130859375 55.2149772644043
H 35.12247848510742 32.64685821533203 56.11050033569336
C 35.250301361083984 32.253814697265625 54.11775588989258
C 35.74350357055664 32.445884704589844 52.7430305480957
H 34.953678131103516 32.57710266113281 52.00044631958008
H 36.31785202026367 33.37462615966797 52.73806381225586
H 36.464595794677734 31.719406127929688 52.362613677978516
C 34.0044059753418 31.560775756835938 54.09370040893555
H 33.926334381103516 30.805435180664062 53.31312942504883
C 33.10190963745117 31.55400848388672 55.05764389038086
H 33.0560188293457 32.332244873046875 55.8180046081543
C 31.917346954345703 30.665695190429688 55.1208610534668
C 31.943004608154297 29.342628479003906 55.3613395690918
C 33.20864486694336 28.59453582763672 55.58977127075195
H 34.04196548461914 29.22064971923828 55.264156341552734
H 33.3299674987793 28.183555603027344 56.594181060791016
H 33.23538589477539 27.793426513671875 54.84817123413086
C 30.71872329711914 28.43804168701172 55.391841888427734
H 30.388797760009766 28.156822204589844 56.394107818603516
H 30.976329803466797 27.415634155273438 55.10762405395508
C 29.424243927001953 28.969009399414062 54.693973541259766
H 28.470355987548828 28.46851348876953 54.87308120727539
H 29.649402618408203 28.930381774902344 53.62613296508789
C 29.32419204711914 30.41564178466797 55.281185150146484
H 28.354900360107422 30.82433319091797 54.98808670043945
H 29.25289535522461 30.389015197753906 56.37053298950195
C 30.513141632080078 31.296852111816406 54.906795501708984
C 30.328998565673828 31.758438110351562 53.44087600708008
H 30.481449127197266 30.860397338867188 52.83858871459961
H 29.340198516845703 32.16529083251953 53.21907424926758
H 30.996265411376953 32.570167541503906 53.14370346069336
C 30.294536590576172 32.52001190185547 55.704288482666016
H 29.331531524658203 32.995628356933594 55.50716781616211
H 30.558834075927734 32.449562072753906 56.761478424072266
H 31.063121795654297 33.24451446533203 55.42709732055664
