207
Triad, Carotenoid-Porphyrin-C60
C 64.99049377441406 44.33883285522461 36.61038589477539
C 65.7500991821289 46.10441970825195 42.84956359863281
C 65.26532745361328 44.08966064453125 41.887550354003906
C 65.48214721679688 42.887107849121094 39.78424835205078
C 66.6552963256836 48.20785903930664 42.09126663208008
C 65.59740447998047 47.46781921386719 42.53809356689453
C 68.00328826904297 46.21479797363281 41.950828552246094
C 67.46388244628906 43.611473083496094 40.89309310913086
C 67.26777648925781 44.569602966308594 36.686744689941406
C 67.87201690673828 47.55092239379883 41.769386291503906
C 65.52387237548828 43.304603576660156 37.43133544921875
C 66.27879333496094 49.673133850097656 38.844337463378906
C 66.13816833496094 49.18053436279297 41.21440887451172
C 66.43620300292969 48.512569427490234 36.67403030395508
C 68.22294616699219 46.820220947265625 36.774864196777344
C 67.05988311767578 47.32106399536133 36.15185546875
C 68.08195495605469 48.83633041381836 39.77153396606445
C 68.78690338134766 45.65821838378906 40.92844772338867
C 68.55278015136719 44.393592834472656 40.43181228637695
C 69.02607727050781 45.2629508972168 38.21822738647461
C 62.03651809692383 45.93879699707031 39.95600128173828
C 62.63833999633789 47.308692932128906 40.41148376464844
C 62.90085220336914 45.0325813293457 40.781883239746094
C 63.54494094848633 45.777626037597656 41.86015319824219
C 64.77813720703125 47.03166580200195 36.233604431152344
C 63.065120697021484 48.33888626098633 39.59665298461914
C 64.78706359863281 43.01223373413086 38.56535720825195
C 64.82300567626953 49.503997802734375 38.78596115112305
C 64.78632354736328 49.08256530761719 41.14213562011719
C 65.03546142578125 48.34601974487305 36.68779754638672
C 63.503231048583984 43.911041259765625 40.23039627075195
C 68.17564392089844 48.67528533935547 38.354164123535156
C 68.86414337158203 47.539878845214844 37.8588981628418
C 68.608642578125 44.207786560058594 39.04716491699219
C 69.13069152832031 46.740386962890625 40.127540588378906
C 62.07772445678711 45.70924758911133 38.40052795410156
C 62.811222076416016 46.865257263183594 37.674747467041016
C 62.99428176879883 44.54216384887695 37.95330047607422
C 63.712947845458984 46.314231872558594 36.74484634399414
C 68.27701568603516 45.46369552612305 37.05406188964844
C 63.380130767822266 47.15330123901367 41.594905853271484
C 63.586544036865234 43.64201736450195 38.85295486450195
C 63.79610824584961 44.94377899169922 36.85907745361328
C 64.6982192993164 43.418052673339844 40.77064895629883
C 66.0061264038086 46.46831130981445 35.859867095947266
C 63.18313980102539 48.07337188720703 38.247718811035156
C 64.05693817138672 49.2194709777832 39.922584533691406
C 64.76396179199219 45.26593780517578 42.4538459777832
C 64.4637222290039 47.969356536865234 41.90707015991211
C 69.25601196289062 46.53830337524414 38.73427200317383
C 64.27088165283203 48.82728576660156 37.73483657836914
C 66.09886169433594 45.06203079223633 36.13082504272461
C 66.9471664428711 45.48349380493164 42.495582580566406
C 66.64869689941406 44.240142822265625 41.86965560913086
C 66.87583923339844 42.979007720947266 39.804588317871094
C 66.9289321899414 43.48756408691406 37.476478576660156
C 66.89156341552734 49.47467041015625 40.08000564575195
C 67.03715515136719 49.157344818115234 37.816314697265625
C 67.53426361083984 43.3864631652832 38.697288513183594
C 68.60523223876953 47.922943115234375 40.60991668701172
C 60.57144546508789 45.814544677734375 40.34759521484375
N 59.87089157104492 45.51895523071289 39.354976654052734
C 60.5700798034668 45.599308013916016 38.028526306152344
H 60.282962799072266 46.50000762939453 37.47993469238281
H 60.3667106628418 44.697635650634766 37.4451904296875
C 58.82828903198242 46.07537078857422 44.32494354248047
C 59.65175247192383 47.06405258178711 43.802757263183594
H 59.83816909790039 47.932376861572266 44.42951583862305
C 60.255313873291016 47.01450729370117 42.53561019897461
H 60.87111282348633 47.81681442260742 42.13728332519531
C 60.0124626159668 45.925750732421875 41.72306442260742
C 58.6106071472168 44.99518966674805 43.38653564453125
H 57.9083137512207 44.20075607299805 43.62577438354492
C 59.1692008972168 44.9547004699707 42.15334701538086
H 58.94216537475586 44.1881103515625 41.416893005371094
C 58.21943283081055 46.04050827026367 45.760398864746094
C 58.3682746887207 47.22740173339844 46.573211669921875
C 59.52627944946289 47.827152252197266 47.157188415527344
H 60.533084869384766 47.554588317871094 46.85838317871094
C 59.0094108581543 48.94784164428711 47.891212463378906
H 59.65678024291992 49.655025482177734 48.39918518066406
C 57.666812896728516 48.88430404663086 47.91518783569336
N 57.31553268432617 47.892677307128906 47.02751159667969
H 56.37504959106445 47.70552062988281 46.70722198486328
C 56.743831634521484 49.75871658325195 48.63935470581055
H 57.15092849731445 50.7027587890625 48.99848556518555
C 55.46603775024414 49.524715423583984 48.89987564086914
C 54.49454116821289 50.495201110839844 48.70119857788086
H 54.66367721557617 51.55329513549805 48.5307502746582
C 53.333431243896484 49.75463104248047 48.795467376708984
H 52.30258560180664 50.06932067871094 48.67074203491211
C 53.667911529541016 48.45266342163086 49.331085205078125
N 54.98330307006836 48.28023910522461 49.26401901245117
C 52.67747116088867 47.41725158691406 49.55717468261719
C 53.05983352661133 46.082828521728516 49.43941879272461
C 52.59376907348633 44.8780403137207 50.13811111450195
H 51.889827728271484 44.93086624145508 50.962066650390625
C 53.37104415893555 43.75739288330078 49.739532470703125
H 53.40129470825195 42.730430603027344 50.08833694458008
C 54.31528854370117 44.1716194152832 48.82915115356445
N 54.0659065246582 45.52555465698242 48.69796371459961
H 54.72805404663086 46.03863525390625 48.13189697265625
C 55.20344924926758 43.38956069946289 48.214324951171875
H 55.06019973754883 42.3626594543457 48.54730987548828
C 56.2193717956543 43.59897232055664 47.193817138671875
C 57.276371002197266 42.704532623291016 46.629032135009766
H 57.349185943603516 41.63752365112305 46.81183624267578
C 58.1534309387207 43.61909484863281 46.080692291259766
H 59.13261032104492 43.414974212646484 45.660255432128906
C 57.64267349243164 44.85896301269531 46.17144775390625
N 56.517337799072266 44.81251525878906 46.8075065612793
C 48.86806869506836 48.24736022949219 51.60037612915039
C 48.99862289428711 47.15008544921875 50.773319244384766
H 48.152896881103516 46.49051284790039 50.59646224975586
C 50.2017936706543 46.917259216308594 49.99651336669922
H 50.283451080322266 46.02233123779297 49.38494873046875
C 51.312198638916016 47.76250076293945 50.14591598510742
C 49.9638557434082 49.14272689819336 51.62461853027344
H 49.95609664916992 49.93069839477539 52.373355865478516
C 51.18588638305664 48.90483474731445 50.913360595703125
H 52.06142044067383 49.49264144897461 51.1769905090332
N 47.74726486206055 48.375125885009766 52.46824264526367
H 48.0307731628418 48.63966369628906 53.39976119995117
C 46.46855545043945 48.18903350830078 52.1910400390625
O 46.02909469604492 48.132015228271484 51.10664749145508
C 45.5319709777832 48.19770431518555 53.41023635864258
C 44.15298843383789 48.58612060546875 53.23960494995117
H 43.833614349365234 48.73672866821289 52.211551666259766
C 43.29703140258789 48.50511169433594 54.31709289550781
C 43.761287689208984 48.06959533691406 55.58639144897461
H 43.06289291381836 48.03697204589844 56.4187126159668
C 45.07148361206055 47.74522018432617 55.76763916015625
H 45.31581497192383 47.423614501953125 56.77682113647461
C 45.95106887817383 47.76982879638672 54.695987701416016
H 46.99336624145508 47.49504089355469 54.83626174926758
C 41.87852096557617 48.781192779541016 54.14352798461914
H 41.69418716430664 49.21937942504883 53.163761138916016
C 40.82822036743164 48.770931243896484 55.02768325805664
H 41.012203216552734 48.34550476074219 56.01312255859375
C 39.52299118041992 49.2036018371582 54.96113204956055
C 39.00039291381836 49.68504333496094 53.62971878051758
H 39.12541580200195 50.749881744384766 53.42247009277344
H 37.956539154052734 49.36749267578125 53.58506393432617
H 39.4442253112793 49.04069137573242 52.86794662475586
C 38.75358963012695 49.25034713745117 56.014408111572266
H 39.103092193603516 48.7562141418457 56.91973114013672
C 37.47355270385742 49.919593811035156 56.210018157958984
H 36.9904899597168 50.32406234741211 55.321773529052734
C 36.84821701049805 49.82798767089844 57.37628173828125
H 37.30373001098633 49.41051483154297 58.27302551269531
C 35.494205474853516 50.3775634765625 57.58915710449219
C 35.156490325927734 50.58505630493164 59.04264450073242
H 34.40937423706055 49.835052490234375 59.31053924560547
H 36.049625396728516 50.40804672241211 59.6455078125
H 34.73264694213867 51.5692138671875 59.253013610839844
C 34.44255828857422 50.44255447387695 56.71200180053711
H 34.5394401550293 49.99556350708008 55.72370529174805
C 33.1274528503418 51.05045700073242 56.970611572265625
H 32.85271072387695 51.5257568359375 57.91110610961914
C 32.188743591308594 50.96228790283203 56.058650970458984
H 32.355796813964844 50.491947174072266 55.09077072143555
C 30.873876571655273 51.53242111206055 56.31117630004883
H 30.729581832885742 52.327392578125 57.041324615478516
C 29.690885543823242 51.315311431884766 55.678627014160156
C 29.576387405395508 50.2008171081543 54.58566665649414
H 30.264726638793945 50.53329086303711 53.80584716796875
H 29.989316940307617 49.243900299072266 54.91164779663086
H 28.618661880493164 50.10514450073242 54.06984329223633
C 28.41837501525879 51.89683151245117 56.070255279541016
H 27.595041275024414 51.671424865722656 55.39406204223633
C 28.132883071899414 52.80288314819336 56.990482330322266
H 28.968870162963867 53.110557556152344 57.61688995361328
C 26.866228103637695 53.573997497558594 57.0875358581543
H 26.12306785583496 53.39337921142578 56.312286376953125
C 26.425874710083008 54.359737396240234 58.06753158569336
C 27.2150821685791 54.66082000732422 59.193016052246094
H 28.144922256469727 55.00932312011719 58.73870086669922
H 26.7766170501709 55.417633056640625 59.84681701660156
H 27.473909378051758 53.72294616699219 59.68885803222656
C 25.094526290893555 54.98784637451172 58.149261474609375
H 25.13218879699707 55.8813591003418 58.770660400390625
C 23.944780349731445 54.54336929321289 57.63320541381836
H 24.038537979125977 53.53958511352539 57.22144317626953
C 22.578359603881836 55.04642105102539 57.73444747924805
C 22.314321517944336 56.41070556640625 57.756710052490234
C 23.2432804107666 57.639217376708984 57.522762298583984
H 22.66505241394043 58.48066329956055 57.13534927368164
H 23.565744400024414 57.727901458740234 58.56229019165039
H 24.04572868347168 57.381412506103516 56.82844543457031
C 20.91969108581543 56.9323844909668 57.92671585083008
H 20.698881149291992 57.289615631103516 56.918701171875
H 20.993581771850586 57.74711990356445 58.65005111694336
C 19.90203285217285 55.917015075683594 58.46585464477539
H 18.8663387298584 56.25114822387695 58.3754997253418
H 20.050161361694336 55.561256408691406 59.48759460449219
C 20.113096237182617 54.6689567565918 57.5262336730957
H 19.344995498657227 53.90799331665039 57.67927169799805
H 20.059499740600586 54.961700439453125 56.47557067871094
C 21.468786239624023 54.00815200805664 57.78858184814453
C 21.488622665405273 53.26847839355469 59.103858947753906
H 20.604013442993164 52.632652282714844 59.1790771484375
H 22.300935745239258 52.54261016845703 59.02815628051758
H 21.694936752319336 53.95793533325195 59.925167083740234
C 21.467599868774414 52.89670181274414 56.678287506103516
H 20.508703231811523 52.378761291503906 56.74696731567383
H 21.61976432800293 53.228572845458984 55.64912796020508
H 22.26518440246582 52.16655731201172 56.83067321777344
