207
Triad, Carotenoid-Porphyrin-C60
C 30.284076690673828 51.03599548339844 54.74284744262695
C 34.74348068237305 47.802879333496094 51.47464370727539
C 34.2896614074707 47.823455810546875 53.62433624267578
C 32.528656005859375 48.319644927978516 55.11469650268555
C 33.59773635864258 48.33137893676758 49.3758544921875
C 34.689029693603516 48.57262420654297 50.268531799316406
C 32.756099700927734 46.54469680786133 50.76945877075195
C 32.24674606323242 46.664676666259766 53.43617248535156
C 28.949077606201172 49.458892822265625 53.79730987548828
C 32.64547348022461 47.35377883911133 49.59652328491211
C 30.656673431396484 49.83530807495117 55.223209381103516
C 31.37832260131836 51.089088439941406 48.93799591064453
C 33.263267517089844 49.59339141845703 48.88356018066406
C 29.56792449951172 51.592308044433594 50.42988586425781
C 28.52347183227539 49.608543395996094 51.41434860229492
C 28.858505249023438 50.97956466674805 51.4228515625
C 30.908554077148438 48.86863327026367 48.768043518066406
C 31.456470489501953 46.3984375 51.194087982177734
C 31.172237396240234 46.37289810180664 52.56367874145508
C 29.124797821044922 47.62730407714844 52.20790100097656
C 34.74821472167969 51.9998893737793 53.427398681640625
C 34.74502944946289 51.80149841308594 51.92850112915039
C 34.85908508300781 50.55165481567383 53.79680633544922
C 35.31474685668945 49.79262161254883 52.69868087768555
C 30.144546508789062 52.543052673339844 52.36124801635742
C 33.83157730102539 52.413509368896484 51.101104736328125
C 32.00645446777344 49.57648849487305 55.470340728759766
C 32.20738220214844 52.083866119384766 49.507450103759766
C 34.08518981933594 50.58573913574219 49.46244812011719
C 30.378070831298828 52.58003616333008 50.988765716552734
C 34.06089782714844 49.94771957397461 54.704322814941406
C 29.747249603271484 49.573951721191406 49.228187561035156
C 29.021854400634766 48.91737747192383 50.282249450683594
C 30.003704071044922 46.985286712646484 53.0963134765625
C 30.546920776367188 47.00912094116211 50.348506927490234
C 33.47691345214844 52.702518463134766 53.912567138671875
C 32.43110656738281 53.13533401489258 52.853126525878906
C 32.548641204833984 51.84513473510742 54.80508804321289
C 31.13933563232422 52.818668365478516 53.294864654541016
C 28.56896209716797 48.846126556396484 52.561710357666016
C 35.2215690612793 50.52218246459961 51.54799270629883
C 32.94239807128906 50.55588912963867 55.19434356689453
C 31.22684097290039 52.006919860839844 54.43524169921875
C 33.755916595458984 48.595394134521484 54.65143585205078
C 29.143756866455078 51.607078552246094 52.640689849853516
C 32.70022201538086 53.053897857666016 51.5220832824707
C 33.534698486328125 51.861572265625 49.82112121582031
C 35.08924865722656 48.38968276977539 52.642066955566406
C 34.957923889160156 49.944793701171875 50.3223991394043
C 29.366622924804688 47.6316032409668 50.83379364013672
C 31.661495208740234 52.83906936645508 50.545127868652344
C 29.24694061279297 50.83772659301758 53.83682632446289
C 33.816856384277344 46.76298904418945 51.67671585083008
C 33.53765106201172 46.779422760009766 53.054691314697266
C 31.727222442626953 47.35713195800781 54.51719284057617
C 29.828224182128906 48.87477493286133 54.67013931274414
C 31.883869171142578 49.829566955566406 48.64835739135742
C 30.039718627929688 50.87039566040039 49.35153579711914
C 30.330120086669922 47.5604248046875 54.36310577392578
C 31.28644561767578 47.59646224975586 49.24626159667969
C 35.85374450683594 52.83991622924805 53.94764709472656
N 35.420196533203125 53.889747619628906 54.62336730957031
C 33.970619201660156 53.964637756347656 54.58894729614258
H 33.68793869018555 54.843238830566406 54.00345230102539
H 33.42761993408203 54.09226989746094 55.528900146484375
C 40.107933044433594 52.2575569152832 53.269012451171875
C 39.21849822998047 52.707611083984375 52.284610748291016
H 39.660430908203125 52.96990966796875 51.32676696777344
C 37.83296585083008 52.914817810058594 52.45402145385742
H 37.24767303466797 53.421966552734375 51.691261291503906
C 37.26818084716797 52.59990310668945 53.70744705200195
C 39.52064514160156 52.04467010498047 54.596336364746094
H 40.098785400390625 51.93888473510742 55.510746002197266
C 38.11970138549805 52.19646453857422 54.777565002441406
H 37.51955795288086 52.1053581237793 55.67927932739258
C 41.605743408203125 52.10102844238281 53.02238845825195
C 42.06048583984375 52.54118728637695 51.75227355957031
C 41.676239013671875 52.204105377197266 50.452693939208984
H 40.886924743652344 51.48076629638672 50.276649475097656
C 42.189666748046875 53.206138610839844 49.54767608642578
H 42.06725311279297 53.233802795410156 48.46995544433594
C 43.048858642578125 53.95090866088867 50.34168243408203
N 42.93260192871094 53.59319305419922 51.61763000488281
H 43.278099060058594 54.157875061035156 52.381752014160156
C 44.032203674316406 55.002723693847656 50.0224609375
H 43.79424285888672 55.598388671875 49.14241027832031
C 45.28437042236328 55.19999694824219 50.55521011352539
C 45.984519958496094 56.41261672973633 50.421241760253906
H 45.60850524902344 57.32857894897461 49.97755432128906
C 47.15376281738281 56.29681396484375 51.15097427368164
H 47.84033203125 57.10340118408203 51.38605499267578
C 47.135581970214844 54.934814453125 51.65702438354492
N 45.99482727050781 54.32199478149414 51.31877136230469
C 48.068878173828125 54.322139739990234 52.56941223144531
C 47.664031982421875 53.852394104003906 53.771202087402344
C 48.313720703125 53.90220260620117 54.98130416870117
H 49.18726348876953 54.528446197509766 55.1295280456543
C 47.676597595214844 53.0559196472168 55.84294509887695
H 47.95843505859375 52.70235061645508 56.82924270629883
C 46.440528869628906 52.642982482910156 55.27900314331055
N 46.54009246826172 53.19138717651367 54.05559158325195
H 45.689231872558594 53.218666076660156 53.51023864746094
C 45.49263000488281 51.85451889038086 55.8431396484375
H 45.676490783691406 51.467559814453125 56.844329833984375
C 44.1947021484375 51.53917694091797 55.2837028503418
C 43.147056579589844 50.72909927368164 55.81159973144531
H 43.31548309326172 50.098716735839844 56.67847442626953
C 42.11936950683594 50.76822280883789 54.91945266723633
H 41.24378204345703 50.12852096557617 54.95624542236328
C 42.43792724609375 51.71867752075195 53.97099304199219
N 43.70927429199219 52.09035110473633 54.186119079589844
C 52.14839172363281 53.780704498291016 51.267635345458984
C 51.72489929199219 53.08816146850586 52.3747673034668
H 52.450897216796875 52.483741760253906 52.91252899169922
C 50.39323425292969 53.26517868041992 52.82008743286133
H 50.07958221435547 52.794456481933594 53.74831771850586
C 49.48622131347656 54.072654724121094 52.124481201171875
C 51.20518493652344 54.366981506347656 50.46943283081055
H 51.60028076171875 54.66188430786133 49.50067138671875
C 49.89854431152344 54.608612060546875 50.90845489501953
H 49.242408752441406 55.143638610839844 50.226688385009766
N 53.444068908691406 53.71895217895508 50.7927131652832
H 53.879783630371094 52.80985641479492 50.83509063720703
C 54.174339294433594 54.82692337036133 50.54103088378906
O 53.813812255859375 56.00521469116211 50.66139602661133
C 55.553802490234375 54.611385345458984 50.01347351074219
C 55.941864013671875 53.6400260925293 49.07390594482422
H 55.172096252441406 53.00624465942383 48.64107131958008
C 57.304351806640625 53.54111099243164 48.673133850097656
C 58.24366760253906 54.419551849365234 49.2205696105957
H 59.26177978515625 54.26984405517578 48.87043380737305
C 57.883697509765625 55.365230560302734 50.206199645996094
H 58.66374206542969 55.94520568847656 50.69274139404297
C 56.52362060546875 55.50771713256836 50.50386428833008
H 56.30158233642578 56.157508850097656 51.34650421142578
C 57.727088928222656 52.53148651123047 47.706790924072266
H 56.92461395263672 51.97290802001953 47.22726058959961
C 58.950828552246094 52.17588806152344 47.31370544433594
H 59.77528381347656 52.7196044921875 47.772586822509766
C 59.297447204589844 51.16844940185547 46.391136169433594
C 58.207603454589844 50.589508056640625 45.56395721435547
H 57.32233428955078 50.25177001953125 46.1068229675293
H 58.54780578613281 49.73014831542969 44.98238754272461
H 58.043426513671875 51.389190673828125 44.83868408203125
C 60.53693389892578 50.586124420166016 46.531227111816406
H 61.15618133544922 51.12580108642578 47.246212005615234
C 61.102561950683594 49.38779067993164 45.96099090576172
H 60.51055145263672 48.907203674316406 45.183509826660156
C 62.382171630859375 49.10213851928711 46.240455627441406
H 62.83282470703125 49.68989181518555 47.038818359375
C 63.1864013671875 47.99082565307617 45.72685623168945
C 64.59739685058594 47.99993133544922 46.22700500488281
H 64.9072036743164 47.1014518737793 46.76478958129883
H 65.23624420166016 47.974979400634766 45.34172821044922
H 64.77951049804688 48.8951301574707 46.82527542114258
C 62.79894256591797 47.22376251220703 44.66965103149414
H 61.824501037597656 47.36534881591797 44.204524993896484
C 63.54481506347656 46.19281005859375 43.95638656616211
H 64.3793716430664 45.92523956298828 44.6027946472168
C 63.28211212158203 45.54362106323242 42.79829788208008
H 62.49427032470703 45.90837478637695 42.14088439941406
C 63.834312438964844 44.3475227355957 42.3194465637207
H 64.65497589111328 44.02711868286133 42.95958709716797
C 63.545021057128906 43.65669631958008 41.19465637207031
C 62.52815246582031 44.12735366821289 40.09180450439453
H 62.524208068847656 45.21902084350586 40.06501007080078
H 62.884742736816406 43.680809020996094 39.16126251220703
H 61.59204864501953 43.63566589355469 40.364601135253906
C 64.255126953125 42.47001266479492 40.830345153808594
H 64.05872344970703 42.12353515625 39.81678771972656
C 64.91184997558594 41.585819244384766 41.652809143066406
H 65.04875183105469 41.82701110839844 42.705902099609375
C 65.72590637207031 40.41654968261719 41.171749114990234
H 65.69745635986328 40.27901840209961 40.09184265136719
C 66.42891693115234 39.48768997192383 41.87656021118164
C 66.47140502929688 39.5938606262207 43.38298416137695
H 65.44734191894531 39.54375076293945 43.75881576538086
H 67.06060028076172 38.77336502075195 43.79783630371094
H 66.82959747314453 40.59798812866211 43.619380950927734
C 67.20287322998047 38.39246368408203 41.29380798339844
H 67.2998275756836 37.494789123535156 41.90266799926758
C 67.84782409667969 38.54974365234375 40.10588455200195
H 67.83924865722656 39.56831741333008 39.72071075439453
C 68.66168212890625 37.61906051635742 39.34712219238281
C 68.36503601074219 36.28042221069336 39.13412857055664
C 67.13896942138672 35.583744049072266 39.64656066894531
H 66.3149185180664 36.22459030151367 39.96706771850586
H 66.76007843017578 35.00480651855469 38.80173110961914
H 67.46589660644531 34.93620300292969 40.46281433105469
C 69.2184066772461 35.27309799194336 38.40750503540039
H 68.58618927001953 34.68498229980469 37.73900604248047
H 69.64923095703125 34.510379791259766 39.05950927734375
C 70.28071594238281 35.932308197021484 37.57722854614258
H 69.88627624511719 36.26612091064453 36.61522674560547
H 71.02182006835938 35.19617462158203 37.25889587402344
C 70.9430923461914 37.0196647644043 38.47991943359375
H 71.14608001708984 36.53449249267578 39.436927795410156
H 71.86466979980469 37.368167877197266 38.00905990600586
C 69.94782257080078 38.126834869384766 38.75305938720703
C 70.67430114746094 39.04940414428711 39.66706466674805
H 70.77545166015625 38.68221664428711 40.69049072265625
H 71.71493530273438 39.243812561035156 39.39921951293945
H 70.12226104736328 39.99137878417969 39.68734359741211
C 69.81959533691406 38.985496520996094 37.45123291015625
H 70.77439880371094 39.044456481933594 36.92460250854492
H 69.06443786621094 38.51028060913086 36.8216552734375
H 69.47578430175781 39.9760627746582 37.75624465942383
