207
Triad, Carotenoid-Porphyrin-C60
C 57.093204498291016 50.53290557861328 34.50596618652344
C 56.51887130737305 55.53666305541992 38.61508560180664
C 58.18718338012695 53.943634033203125 38.50714874267578
C 58.99611282348633 52.37138366699219 36.88466262817383
C 54.74082565307617 56.391849517822266 37.29117965698242
C 55.155643463134766 55.718814849853516 38.41701126098633
C 57.07211685180664 56.689674377441406 36.56475067138672
C 59.12208938598633 54.77327346801758 36.41998291015625
C 57.560001373291016 52.22988510131836 33.166175842285156
C 55.7206916809082 56.90552520751953 36.39480209350586
C 58.30936813354492 51.081336975097656 35.025272369384766
C 52.80990982055664 54.460811614990234 34.92992401123047
C 53.60319137573242 55.74555969238281 36.79001235961914
C 53.711734771728516 52.94344711303711 33.35393142700195
C 55.82655715942383 53.6566047668457 32.390228271484375
C 54.87583541870117 52.67329406738281 32.63892364501953
C 54.31016159057617 56.109256744384766 34.55082702636719
C 57.66427230834961 56.39349365234375 35.341339111328125
C 58.69906234741211 55.412899017333984 35.26091766357422
C 57.73784255981445 54.603492736816406 33.21470260620117
C 55.02231979370117 50.97075271606445 38.808631896972656
C 54.0384407043457 52.18837356567383 38.67202377319336
C 56.26815414428711 51.794639587402344 39.04676055908203
C 56.049625396728516 53.15937805175781 39.28192138671875
C 54.3712043762207 50.9404182434082 34.06145477294922
C 53.11319351196289 52.3126335144043 37.60660171508789
C 58.479190826416016 51.21090316772461 36.377384185791016
C 52.46187973022461 53.45614242553711 35.80180358886719
C 53.22980880737305 54.71818542480469 37.65146255493164
C 53.3425407409668 51.84054946899414 34.16468811035156
C 57.461307525634766 51.607147216796875 38.33235549926758
C 54.36195755004883 55.224952697753906 33.4597053527832
C 55.55729293823242 54.964569091796875 32.824459075927734
C 58.7266960144043 54.545745849609375 34.21161651611328
C 56.65726089477539 56.45730209350586 34.37331008911133
C 55.083011627197266 49.98434829711914 37.5966911315918
C 54.170589447021484 50.427772521972656 36.46523666381836
C 56.434017181396484 50.024139404296875 36.82831954956055
C 54.79221725463867 50.253231048583984 35.188358306884766
C 57.16218185424805 53.475669860839844 32.69026184082031
C 54.6952018737793 53.39567565917969 39.06248474121094
C 57.54502487182617 50.718265533447266 37.2725715637207
C 56.139217376708984 50.06538772583008 35.468040466308594
C 58.39314651489258 52.649776458740234 38.08222198486328
C 55.306148529052734 51.427154541015625 33.10483932495117
C 53.1876335144043 51.40922164916992 36.58578872680664
C 52.6817512512207 53.57331466674805 37.139671325683594
C 56.92227554321289 54.23574447631836 38.98909378051758
C 54.2630729675293 54.65514373779297 38.594139099121094
C 56.70232009887695 55.5654296875 33.29652786254883
C 52.80569839477539 52.13292694091797 35.435577392578125
C 56.67525863647461 51.151939392089844 33.34596252441406
C 57.47397232055664 55.96675491333008 37.70154571533203
C 58.49602127075195 54.985042572021484 37.65298843383789
C 59.366031646728516 53.45506286621094 36.06061553955078
C 58.5847053527832 52.14902114868164 34.132442474365234
C 53.3315544128418 55.6561393737793 35.43633270263672
C 53.462947845458984 54.24419403076172 33.72499084472656
C 59.12874221801758 53.352516174316406 34.72185516357422
C 55.46247482299805 56.70561981201172 35.039546966552734
C 54.57658767700195 50.06126403808594 39.92059326171875
N 54.3592414855957 48.83241653442383 39.60222244262695
C 54.58993911743164 48.64234161376953 38.13009262084961
H 53.61276626586914 48.259727478027344 37.82448959350586
H 55.29310989379883 47.80863571166992 38.05848693847656
C 55.77077102661133 51.03596496582031 44.043678283691406
C 55.05196762084961 51.93373489379883 43.268131256103516
H 54.83321762084961 52.9227180480957 43.66264724731445
C 54.64516067504883 51.674800872802734 41.942256927490234
H 54.2620735168457 52.40584182739258 41.2348747253418
C 54.90885543823242 50.41196060180664 41.40963363647461
C 55.82060623168945 49.76551055908203 43.57393264770508
H 56.090572357177734 48.929141998291016 44.21360397338867
C 55.38846206665039 49.43038558959961 42.30219268798828
H 55.48111343383789 48.43718338012695 41.870296478271484
C 56.521671295166016 51.35130310058594 45.32929611206055
C 56.3744010925293 52.793418884277344 45.79126739501953
C 56.69881057739258 53.99613952636719 45.197628021240234
H 57.04470443725586 54.2126350402832 44.19228744506836
C 56.78163528442383 54.98830795288086 46.250709533691406
H 56.9687614440918 56.03546905517578 46.037025451660156
C 56.523983001708984 54.397186279296875 47.41679763793945
N 56.2199592590332 53.112117767333984 47.12724685668945
H 55.78635787963867 52.41608428955078 47.71855926513672
C 56.41353988647461 55.046199798583984 48.690982818603516
H 56.7289924621582 56.08013916015625 48.559146881103516
C 56.283077239990234 54.5696907043457 49.91386413574219
C 56.45278549194336 55.370216369628906 51.109336853027344
H 56.6812629699707 56.42855453491211 51.17963409423828
C 56.400691986083984 54.465579986572266 52.123756408691406
H 56.4533805847168 54.698585510253906 53.182132720947266
C 56.15891647338867 53.19563674926758 51.50258255004883
N 56.03013229370117 53.25288391113281 50.19519805908203
C 56.23000717163086 51.90687561035156 52.22764205932617
C 57.04389572143555 50.82957458496094 51.8148078918457
C 58.12116622924805 50.112247467041016 52.43533706665039
H 58.2917366027832 50.20383071899414 53.502925872802734
C 58.765262603759766 49.37347412109375 51.528202056884766
H 59.505374908447266 48.58701705932617 51.6328125
C 58.26106643676758 49.67120361328125 50.258506774902344
N 57.25344467163086 50.47313690185547 50.516178131103516
H 56.796566009521484 51.024600982666016 49.80254364013672
C 58.601192474365234 49.131378173828125 49.06340026855469
H 59.38081741333008 48.38276672363281 49.19639587402344
C 58.1320686340332 49.28858947753906 47.699256896972656
C 58.5923957824707 48.72781753540039 46.49886703491211
H 59.367008209228516 47.97124481201172 46.429500579833984
C 58.07596206665039 49.45555877685547 45.48096466064453
H 58.42329788208008 49.45184326171875 44.453067779541016
C 57.2268180847168 50.38527297973633 46.038639068603516
N 57.20974349975586 50.21617126464844 47.34636688232422
C 53.4487419128418 50.96329879760742 55.49301528930664
C 54.42997360229492 50.09571838378906 55.0809211730957
H 54.41666793823242 49.08808517456055 55.488433837890625
C 55.37417221069336 50.411285400390625 54.101898193359375
H 56.06869125366211 49.671600341796875 53.7119140625
C 55.40189743041992 51.692508697509766 53.42743682861328
C 53.50200271606445 52.218753814697266 54.881805419921875
H 52.71017837524414 52.87897491455078 55.22631072998047
C 54.46590805053711 52.577144622802734 53.93685531616211
H 54.54985427856445 53.581092834472656 53.52867126464844
N 52.59636306762695 50.642032623291016 56.59992980957031
H 52.7650032043457 51.26926040649414 57.37208557128906
C 51.43325424194336 49.94206619262695 56.5891227722168
O 50.96982192993164 49.357967376708984 55.63407897949219
C 50.69112777709961 49.97665786743164 57.94314193725586
C 49.36458969116211 49.513702392578125 58.063194274902344
H 48.88090896606445 49.13394546508789 57.166866302490234
C 48.67191696166992 49.63551712036133 59.2911491394043
C 49.3297004699707 50.2392463684082 60.33832550048828
H 48.77840805053711 50.41276931762695 61.258941650390625
C 50.602474212646484 50.66364288330078 60.32992172241211
H 51.13687515258789 51.11466598510742 61.16212463378906
C 51.269100189208984 50.468467712402344 59.16512680053711
H 52.31142807006836 50.768760681152344 59.23554611206055
C 47.368526458740234 49.015342712402344 59.457427978515625
H 46.9881477355957 48.64448165893555 58.506797790527344
C 46.644962310791016 48.73493576049805 60.56527328491211
H 46.90095901489258 49.122745513916016 61.55015563964844
C 45.42520523071289 47.98584747314453 60.5859489440918
C 44.56405258178711 48.47129821777344 61.69758224487305
H 44.425960540771484 47.681339263916016 62.43877410888672
H 43.57722854614258 48.72442626953125 61.304439544677734
H 44.96821212768555 49.30894088745117 62.26984405517578
C 45.09977340698242 47.08900451660156 59.67753982543945
H 45.87636184692383 46.85755920410156 58.95003890991211
C 43.851802825927734 46.28323745727539 59.50166320800781
H 43.22956466674805 46.2868766784668 60.39537811279297
C 43.479618072509766 45.84114074707031 58.2458381652832
H 44.07870101928711 46.00707244873047 57.3516960144043
C 42.13748550415039 45.34518814086914 57.86277770996094
C 41.7771110534668 45.54179000854492 56.3861198425293
H 41.68161392211914 44.54142761230469 55.95877456665039
H 40.906063079833984 46.187557220458984 56.25678253173828
H 42.61652755737305 45.990997314453125 55.85126876831055
C 41.351314544677734 44.599945068359375 58.70603942871094
H 41.724300384521484 44.486480712890625 59.72286605834961
C 40.05961227416992 44.0113639831543 58.45184326171875
H 39.433074951171875 44.39814376831055 57.64949035644531
C 39.500553131103516 43.04300308227539 59.20995330810547
H 40.009456634521484 42.567996978759766 60.04739761352539
C 38.2686882019043 42.40435028076172 58.98443603515625
H 37.695709228515625 42.78089904785156 58.13836669921875
C 37.6705436706543 41.468997955322266 59.70584487915039
C 38.374244689941406 40.83038330078125 60.908302307128906
H 37.93817138671875 39.83578109741211 61.02262878417969
H 39.44268798828125 40.732383728027344 60.70509719848633
H 38.1997184753418 41.39997863769531 61.82349395751953
C 36.36776351928711 40.87887191772461 59.485965728759766
H 36.209136962890625 39.88774871826172 59.90837860107422
C 35.23190689086914 41.36906051635742 58.89822006225586
H 35.234527587890625 42.41918182373047 58.60984420776367
C 34.07434844970703 40.55458450317383 58.47566604614258
H 34.08879470825195 39.51199722290039 58.78988265991211
C 32.96596145629883 40.98036575317383 57.82212829589844
C 32.739845275878906 42.346580505371094 57.335487365722656
H 31.71701431274414 42.62031936645508 57.602596282958984
H 33.4327507019043 43.05144500732422 57.799720764160156
H 32.9212646484375 42.39681625366211 56.25983428955078
C 31.775936126708984 40.0962028503418 57.63257598876953
H 31.90491485595703 39.14934539794922 58.154842376708984
C 30.66857147216797 40.17921829223633 56.881683349609375
H 30.565109252929688 41.0374755859375 56.21940994262695
C 29.528942108154297 39.23635482788086 56.726200103759766
C 29.072742462158203 38.5570068359375 57.79903030395508
C 29.571651458740234 38.636077880859375 59.26569747924805
H 30.07562255859375 39.593048095703125 59.416316986083984
H 28.632686614990234 38.603172302246094 59.822227478027344
H 30.176010131835938 37.765602111816406 59.529300689697266
C 27.9530029296875 37.62897491455078 57.81156921386719
H 27.09414291381836 38.16048049926758 58.226688385009766
H 28.160179138183594 36.762081146240234 58.44247055053711
C 27.530853271484375 37.12601852416992 56.41001510620117
H 26.491870880126953 36.789955139160156 56.416358947753906
H 28.23766326904297 36.39897918701172 56.00468444824219
C 27.588539123535156 38.21917724609375 55.3791389465332
H 27.298934936523438 37.860565185546875 54.38919448852539
H 26.87435531616211 38.96486282348633 55.734619140625
C 28.96109390258789 38.966400146484375 55.28871536254883
C 29.957271575927734 38.092288970947266 54.567012786865234
H 29.61478042602539 37.84324645996094 53.560462951660156
H 30.942195892333984 38.53696823120117 54.41001892089844
H 30.161319732666016 37.20731735229492 55.17335891723633
C 28.919143676757812 40.221092224121094 54.41846466064453
H 28.219139099121094 40.920257568359375 54.880653381347656
H 29.854442596435547 40.77976989746094 54.34390640258789
H 28.453521728515625 40.04256057739258 53.44697570800781
