207
Triad, Carotenoid-Porphyrin-C60
C 43.20858383178711 61.82688903808594 42.73321533203125
C 44.20956039428711 56.48708724975586 46.158695220947266
C 43.34573745727539 58.42893600463867 46.805755615234375
C 42.29413986206055 60.44527816772461 45.82701873779297
C 44.59366989135742 55.1895866394043 44.15581512451172
C 45.06181716918945 55.88684844970703 45.244407653808594
C 42.30150604248047 55.765438079833984 44.82396697998047
C 41.213600158691406 58.25996398925781 45.64786148071289
C 41.473365783691406 60.604164123535156 41.96697235107422
C 43.21830749511719 55.19687271118164 43.9107780456543
C 42.357330322265625 61.59901428222656 43.762290954589844
C 45.44904327392578 56.62380599975586 40.925559997558594
C 45.443824768066406 55.42847442626953 43.10630798339844
C 44.3586311340332 58.64091110229492 39.99085235595703
C 42.055419921875 58.78108215332031 40.51042556762695
C 43.22938919067383 59.376766204833984 40.158470153808594
C 43.514060974121094 55.701454162597656 41.57319641113281
C 41.254150390625 56.36033248901367 44.117610931396484
C 40.741790771484375 57.60645294189453 44.5110969543457
C 40.677490234375 58.37653350830078 42.201473236083984
C 46.85724639892578 60.15434646606445 45.195091247558594
C 47.21455383300781 58.8017578125 44.607208251953125
C 45.717628479003906 59.84229278564453 46.17356491088867
C 45.68861389160156 58.49052429199219 46.348819732666016
C 44.93965530395508 60.691139221191406 40.86763381958008
C 47.326988220214844 58.47325134277344 43.23196029663086
C 42.8615837097168 61.4013786315918 45.015193939208984
C 46.51327133178711 57.460880279541016 41.3828239440918
C 46.450016021728516 56.27284622192383 43.53846740722656
C 45.4521484375 59.42152786254883 40.42245864868164
C 44.498165130615234 60.548099517822266 46.24130630493164
C 43.191402435302734 56.625152587890625 40.55998611450195
C 42.01674270629883 57.39572525024414 40.716068267822266
C 40.3839225769043 58.610191345214844 43.588069915771484
C 41.50113296508789 56.12682342529297 42.7523193359375
C 46.499107360839844 61.27411651611328 44.11130142211914
C 46.51567077636719 60.74491882324219 42.664669036865234
C 45.06270217895508 61.80635452270508 44.23271942138672
C 45.426368713378906 61.316650390625 41.99699020385742
C 41.21683120727539 59.351112365722656 41.45199203491211
C 46.58358383178711 57.87469482421875 45.43012237548828
C 44.23417663574219 61.516109466552734 45.26924514770508
C 44.57162094116211 61.91073989868164 42.943302154541016
C 43.350074768066406 59.8337516784668 46.520633697509766
C 43.58620071411133 60.591773986816406 40.73171615600586
C 46.96129608154297 59.41994857788086 42.26838684082031
C 47.020389556884766 57.22596740722656 42.66908264160156
C 44.53499221801758 57.720664978027344 46.64600372314453
C 46.2100944519043 56.54804992675781 44.94326400756836
C 41.17447280883789 57.14892578125 41.784034729003906
C 46.524173736572266 58.834312438964844 41.1225700378418
C 42.69766616821289 61.20549774169922 41.606658935546875
C 42.83395767211914 56.47510528564453 45.91950225830078
C 42.283939361572266 57.65708923339844 46.32818603515625
C 41.25758361816406 59.62474822998047 45.37163162231445
C 41.255863189697266 60.85609817504883 43.3557014465332
C 44.928871154785156 55.671043395996094 41.80608367919922
C 44.405555725097656 57.26565933227539 40.22077941894531
C 40.68098068237305 59.88347244262695 44.15143966674805
C 42.708984375 55.45699691772461 42.635196685791016
C 48.10564422607422 60.804595947265625 45.90863037109375
N 48.44955062866211 61.895652770996094 45.38023376464844
C 47.56520080566406 62.38985824584961 44.39560317993164
H 48.04410934448242 62.62970733642578 43.442832946777344
H 47.07436752319336 63.2939338684082 44.764896392822266
C 50.799339294433594 59.229408264160156 49.07280731201172
C 49.44281005859375 58.85784149169922 49.011539459228516
H 49.01155471801758 58.21938705444336 49.77832794189453
C 48.54550552368164 59.275611877441406 48.00385665893555
H 47.519371032714844 58.92046356201172 48.05375671386719
C 48.935462951660156 60.227691650390625 47.069007873535156
C 51.259490966796875 60.06060791015625 48.037315368652344
H 52.33154296875 60.23463821411133 47.99280548095703
C 50.32765197753906 60.5064697265625 47.04414367675781
H 50.636146545410156 61.07856369018555 46.17286682128906
C 51.69221115112305 58.7606201171875 50.22386169433594
C 51.08553695678711 57.92664337158203 51.24837875366211
C 50.122135162353516 58.184547424316406 52.200008392333984
H 49.45941925048828 59.028770446777344 52.35913848876953
C 49.987735748291016 57.10697555541992 53.04792404174805
H 49.226871490478516 57.01375961303711 53.81578826904297
C 50.86874008178711 56.15949630737305 52.74067687988281
N 51.48959732055664 56.652042388916016 51.626216888427734
H 52.322967529296875 56.223602294921875 51.246673583984375
C 51.211612701416016 54.849056243896484 53.220970153808594
H 50.65841293334961 54.60939025878906 54.12786102294922
C 52.36591339111328 54.12264633178711 53.14640808105469
C 52.656124114990234 52.98044204711914 53.94260025024414
H 51.93042755126953 52.528076171875 54.61039352416992
C 53.80706024169922 52.523033142089844 53.443058013916016
H 54.36781692504883 51.6952018737793 53.86432647705078
C 54.2493782043457 53.36997604370117 52.381309509277344
N 53.28520584106445 54.30249786376953 52.20323944091797
C 55.522769927978516 53.39698028564453 51.63188552856445
C 56.295806884765625 54.60464096069336 51.433815002441406
C 57.65158462524414 54.92301559448242 51.70670700073242
H 58.43584060668945 54.264251708984375 52.06475830078125
C 57.892967224121094 56.25727462768555 51.46455383300781
H 58.77143859863281 56.84977722167969 51.69792175292969
C 56.662132263183594 56.843265533447266 50.998958587646484
N 55.85845947265625 55.807830810546875 51.05256271362305
H 54.929100036621094 55.93401336669922 50.675079345703125
C 56.380306243896484 58.113922119140625 50.69087600708008
H 57.274410247802734 58.729366302490234 50.778778076171875
C 55.16872024536133 58.82564926147461 50.37282180786133
C 54.87456512451172 60.22561264038086 50.32477951049805
H 55.55612564086914 61.056060791015625 50.476646423339844
C 53.45823669433594 60.362586975097656 50.179595947265625
H 52.882118225097656 61.27293395996094 50.308353424072266
C 53.0582160949707 59.04254150390625 50.14390182495117
N 54.00391387939453 58.140560150146484 50.29109191894531
C 56.959930419921875 49.712249755859375 49.70374298095703
C 57.6135139465332 50.914093017578125 49.48033142089844
H 58.520233154296875 50.83110809326172 48.88657760620117
C 57.17146682739258 52.10062026977539 50.133113861083984
H 57.68949508666992 53.011436462402344 49.84392166137695
C 56.0321159362793 52.12418746948242 50.970733642578125
C 55.77877426147461 49.733787536621094 50.4033088684082
H 55.30158615112305 48.759056091308594 50.4647102355957
C 55.3835563659668 50.90346145629883 51.10519027709961
H 54.51909255981445 50.86725616455078 51.76319122314453
N 57.324066162109375 48.55438995361328 48.96867752075195
H 56.55205535888672 48.11629867553711 48.488929748535156
C 58.48575210571289 47.928932189941406 49.1061897277832
O 59.47809982299805 48.50021743774414 49.55623245239258
C 58.491092681884766 46.509395599365234 48.54987716674805
C 57.395023345947266 45.643497467041016 48.67543411254883
H 56.49113464355469 46.050838470458984 49.12110900878906
C 57.39075469970703 44.35035705566406 48.21907424926758
C 58.530914306640625 43.890052795410156 47.62545394897461
H 58.619808197021484 42.888946533203125 47.211387634277344
C 59.62770080566406 44.74027633666992 47.424896240234375
H 60.46223449707031 44.27564239501953 46.9060173034668
C 59.690093994140625 46.029869079589844 47.991851806640625
H 60.600276947021484 46.62380599975586 47.97242736816406
C 56.30632019042969 43.43985366821289 48.57628631591797
H 55.527591705322266 43.98060989379883 49.112091064453125
C 56.03977966308594 42.154701232910156 48.23680877685547
H 56.735198974609375 41.490020751953125 47.726402282714844
C 54.799888610839844 41.4538688659668 48.5767822265625
C 53.61524963378906 42.372955322265625 48.91291427612305
H 52.71809768676758 41.75214767456055 48.9597053527832
H 53.40852355957031 43.042877197265625 48.0756950378418
H 53.72391891479492 42.911705017089844 49.85652542114258
C 54.59724044799805 40.14753341674805 48.33603286743164
H 55.49531555175781 39.74393844604492 47.87074661254883
C 53.60791778564453 39.1478157043457 48.722251892089844
H 52.921958923339844 39.37279510498047 49.53758239746094
C 53.54132080078125 37.92964553833008 48.062007904052734
H 54.311553955078125 37.773536682128906 47.30815505981445
C 52.5924072265625 36.86830139160156 48.4267463684082
C 52.62236785888672 35.75922775268555 47.388916015625
H 52.13322067260742 36.13343048095703 46.48715591430664
H 53.66594314575195 35.60435485839844 47.10708236694336
H 52.1858024597168 34.793495178222656 47.652042388916016
C 51.835906982421875 36.74570083618164 49.566368103027344
H 51.82608413696289 37.626380920410156 50.20685577392578
C 50.9422492980957 35.70686340332031 49.99412155151367
H 50.85359573364258 34.76835632324219 49.44890213012695
C 50.255062103271484 35.7977294921875 51.10732650756836
H 50.26728439331055 36.7034912109375 51.7117919921875
C 49.406700134277344 34.73854446411133 51.61089324951172
H 49.3121452331543 33.848445892333984 50.99063491821289
C 48.749244689941406 34.8220100402832 52.7465934753418
C 48.91608428955078 36.00825119018555 53.67671203613281
H 48.78303909301758 36.8983039855957 53.05818557739258
H 48.172237396240234 36.05552673339844 54.47478485107422
H 49.890804290771484 36.03182601928711 54.16845703125
C 47.77596664428711 33.833580017089844 53.15374755859375
H 47.60442352294922 33.79584503173828 54.22848892211914
C 47.02311706542969 33.11553955078125 52.27949142456055
H 47.175167083740234 33.15171432495117 51.20176696777344
C 45.83241271972656 32.393348693847656 52.690425872802734
H 45.63621520996094 32.42669677734375 53.76109313964844
C 45.01606750488281 31.662914276123047 51.947383880615234
C 45.230228424072266 31.486852645874023 50.551979064941406
H 44.357051849365234 30.99359893798828 50.11986541748047
H 45.32260513305664 32.39838790893555 49.95781326293945
H 46.10380554199219 30.87105941772461 50.32810592651367
C 43.87973403930664 30.939119338989258 52.54037094116211
H 43.796607971191406 29.968482971191406 52.053672790527344
C 43.00844955444336 31.35962677001953 53.4915771484375
H 43.20924758911133 32.3555793762207 53.88359832763672
C 41.87013626098633 30.695419311523438 54.110504150390625
C 41.92587661743164 29.433218002319336 54.5798225402832
C 43.17881393432617 28.55255889892578 54.52865982055664
H 43.19396209716797 28.019031524658203 53.57598876953125
H 44.033329010009766 29.219783782958984 54.65935516357422
H 43.14854049682617 27.852582931518555 55.36626434326172
C 40.790061950683594 28.663253784179688 55.20491409301758
H 40.9932746887207 28.767892837524414 56.27272415161133
H 40.911476135253906 27.60755157470703 54.95348358154297
C 39.4332389831543 29.314687728881836 54.850433349609375
H 38.5440788269043 28.90266990661621 55.33219909667969
H 39.14914321899414 29.078641891479492 53.82279586791992
C 39.512901306152344 30.82805633544922 55.026851654052734
H 38.53828048706055 31.285615921020508 54.8446044921875
H 39.82759475708008 31.082168579101562 56.04117965698242
C 40.52604675292969 31.433969497680664 54.09236526489258
C 39.97451400756836 31.564117431640625 52.7292366027832
H 40.645572662353516 32.20341873168945 52.15179443359375
H 39.988651275634766 30.57762908935547 52.26115036010742
H 38.961544036865234 31.965770721435547 52.658294677734375
C 40.66462326049805 32.836936950683594 54.61045837402344
H 41.1838264465332 33.54374694824219 53.95982360839844
H 39.67058563232422 33.242191314697266 54.81075668334961
H 41.15167236328125 32.7747917175293 55.58584976196289
