207
Triad, Carotenoid-Porphyrin-C60
C 57.00875473022461 36.18460464477539 57.33220291137695
C 51.313411712646484 36.82776641845703 54.281253814697266
C 53.41084671020508 37.21296310424805 53.51658248901367
C 55.68166732788086 36.64561462402344 54.075660705566406
C 50.26518249511719 35.482017517089844 56.00635528564453
C 50.48631286621094 36.72527313232422 55.398033142089844
C 51.595977783203125 34.4426383972168 54.34321975708008
C 54.13544845581055 34.87705993652344 53.31338119506836
C 56.49772262573242 34.024810791015625 56.8874626159668
C 50.88479995727539 34.35458755493164 55.496883392333984
C 57.02579879760742 36.000457763671875 55.9294548034668
C 51.508323669433594 34.977352142333984 59.39615249633789
C 50.30434799194336 35.6648063659668 57.39231872558594
C 53.84672546386719 34.447715759277344 59.884700775146484
C 54.845027923583984 32.92038345336914 58.166507720947266
C 54.96684646606445 33.938209533691406 59.17697525024414
C 51.33453369140625 33.57861328125 57.71065902709961
C 52.5440788269043 33.4159049987793 54.38259506225586
C 53.83679962158203 33.6165885925293 53.888092041015625
C 54.821651458740234 32.58950424194336 55.95532989501953
C 53.75804138183594 39.685611724853516 56.96745300292969
C 52.47754669189453 39.069461822509766 57.42274475097656
C 53.75774383544922 39.22075653076172 55.49578857421875
C 52.49484634399414 38.7585334777832 55.138057708740234
C 55.378482818603516 36.01603698730469 59.57039260864258
C 52.293617248535156 38.335411071777344 58.56968307495117
C 56.41581344604492 36.947425842285156 55.152008056640625
C 51.900718688964844 36.299293518066406 59.55152893066406
C 50.546199798583984 37.01227569580078 57.6257438659668
C 54.13554763793945 35.74876403808594 60.12123107910156
C 54.875 38.595603942871094 54.91140365600586
C 52.42412185668945 33.09223937988281 58.495182037353516
C 53.53702926635742 32.526363372802734 57.83473205566406
C 54.956546783447266 33.299434661865234 54.68999481201172
C 52.46942901611328 32.849769592285156 55.69257354736328
C 55.02511978149414 39.324424743652344 57.82670593261719
C 54.67791748046875 38.312705993652344 58.96478271484375
C 55.99969482421875 38.43292236328125 57.04454040527344
C 55.56482696533203 37.24387741088867 58.92695617675781
C 55.63483810424805 32.93514633178711 57.03022766113281
C 51.71308898925781 38.6602783203125 56.2906608581543
C 55.89549255371094 38.157894134521484 55.68647003173828
C 56.41123580932617 37.38567352294922 57.816165924072266
C 54.70426940917969 37.617088317871094 53.84735870361328
C 55.93705749511719 34.87664794921875 59.02682876586914
C 53.36855697631836 37.992881774902344 59.34575653076172
C 51.37163162231445 37.305992126464844 58.7076416015625
C 52.311805725097656 37.77333450317383 54.155189514160156
C 50.7279052734375 37.670169830322266 56.41032028198242
C 53.55878448486328 32.359378814697266 56.43733596801758
C 53.13138198852539 36.697750091552734 59.894554138183594
C 56.71243667602539 34.945899963378906 57.91624069213867
C 51.7925910949707 35.665592193603516 53.6818962097168
C 53.10222625732422 35.844932556152344 53.1959342956543
C 55.40995407104492 35.25151443481445 53.756858825683594
C 56.695064544677734 34.669342041015625 55.64960861206055
C 50.7672004699707 34.69063949584961 58.236732482910156
C 52.58171844482422 34.07763671875 59.487693786621094
C 55.927181243896484 34.30117416381836 54.61500930786133
C 51.34653091430664 33.350460052490234 56.31410598754883
C 53.75293731689453 41.196556091308594 57.2913818359375
N 54.60588836669922 41.59736251831055 58.1226692199707
C 55.628658294677734 40.588890075683594 58.45781326293945
H 55.86234664916992 40.50947189331055 59.522586822509766
H 56.530792236328125 40.98951721191406 57.98845291137695
C 50.96454620361328 44.34596633911133 56.11830139160156
C 51.39106750488281 43.28255844116211 55.24713134765625
H 51.053565979003906 43.417545318603516 54.22270584106445
C 52.287498474121094 42.26344299316406 55.57181930541992
H 52.809349060058594 41.621246337890625 54.8669548034668
C 52.65238571166992 42.13119888305664 56.921348571777344
C 51.29489517211914 44.117191314697266 57.49357986450195
H 50.76032257080078 44.71857452392578 58.22442626953125
C 52.13615417480469 43.07807540893555 57.89126968383789
H 52.41848373413086 42.82840347290039 58.91084289550781
C 50.0929069519043 45.4964485168457 55.734230041503906
C 49.63423538208008 45.528663635253906 54.365108489990234
C 50.2885856628418 45.663917541503906 53.206825256347656
H 51.3400764465332 45.862144470214844 53.0271110534668
C 49.37592697143555 45.608646392822266 52.16554641723633
H 49.73497772216797 45.83198165893555 51.16633224487305
C 48.10870361328125 45.36928176879883 52.64018249511719
N 48.31485366821289 45.335357666015625 53.994239807128906
H 47.538818359375 45.4007453918457 54.63892364501953
C 46.85615539550781 45.340003967285156 52.02358627319336
H 46.8331298828125 44.7987060546875 51.078922271728516
C 45.73810958862305 45.833927154541016 52.57914733886719
C 44.51365661621094 45.22207260131836 52.394474029541016
H 44.361778259277344 44.25973129272461 51.91691970825195
C 43.687599182128906 45.86984634399414 53.29937744140625
H 42.648406982421875 45.59669876098633 53.45003890991211
C 44.41079330444336 46.944339752197266 53.87738800048828
N 45.72547912597656 46.9272346496582 53.48271560668945
C 43.919410705566406 48.098045349121094 54.640113830566406
C 44.34432601928711 48.39275360107422 55.924503326416016
C 43.73662567138672 48.93404006958008 57.07964324951172
H 42.67731857299805 49.16244125366211 57.13382339477539
C 44.67457962036133 49.07246017456055 58.02569580078125
H 44.52828598022461 49.43344497680664 59.03837203979492
C 45.94104766845703 48.52301788330078 57.60365295410156
N 45.51812744140625 48.0062370300293 56.47789764404297
H 46.1181526184082 47.31261444091797 56.052490234375
C 47.124420166015625 48.4842529296875 58.249061584472656
H 47.231632232666016 49.114952087402344 59.13033676147461
C 48.34059524536133 47.83018493652344 57.822662353515625
C 49.66840362548828 47.837650299072266 58.359893798828125
H 49.973304748535156 48.472511291503906 59.185245513916016
C 50.37474822998047 46.93244552612305 57.62126922607422
H 51.45030212402344 46.802528381347656 57.6807861328125
C 49.57975769042969 46.37869644165039 56.736976623535156
N 48.39772033691406 46.928428649902344 56.803768157958984
C 41.275657653808594 50.729923248291016 52.354713439941406
C 41.71813201904297 51.163917541503906 53.596866607666016
H 41.663291931152344 52.225948333740234 53.82192611694336
C 42.527549743652344 50.3126220703125 54.44346237182617
H 43.00321578979492 50.77286148071289 55.305721282958984
C 42.888458251953125 49.0408935546875 53.95643997192383
C 41.51359558105469 49.396610260009766 51.95140838623047
H 41.125205993652344 49.11103820800781 50.97715377807617
C 42.38718795776367 48.588539123535156 52.7247200012207
H 42.46440505981445 47.571922302246094 52.3477668762207
N 40.66074752807617 51.63138198852539 51.487213134765625
H 40.10891342163086 52.326045989990234 51.96784591674805
C 40.98082733154297 51.915306091308594 50.20240020751953
O 41.69082260131836 51.2382926940918 49.542144775390625
C 40.26567459106445 53.21549987792969 49.71260452270508
C 40.62535858154297 53.79789733886719 48.50160217285156
H 41.49288558959961 53.433006286621094 47.957706451416016
C 40.11196517944336 54.949222564697266 48.060428619384766
C 38.98610305786133 55.43159866333008 48.76738739013672
H 38.55759048461914 56.34511184692383 48.36310577392578
C 38.444175720214844 54.7773551940918 49.882965087890625
H 37.634368896484375 55.22941589355469 50.44990539550781
C 39.20146560668945 53.72522735595703 50.38276290893555
H 38.82884216308594 53.20307159423828 51.26030349731445
C 40.71917724609375 55.68784713745117 46.98794937133789
H 41.57026290893555 55.20067596435547 46.514408111572266
C 40.43024826049805 56.900291442871094 46.42457580566406
H 39.4871940612793 57.329833984375 46.75933074951172
C 41.04117965698242 57.674015045166016 45.26289367675781
C 40.196632385253906 58.737369537353516 44.67756652832031
H 39.43037414550781 59.06920623779297 45.38127136230469
H 39.74181365966797 58.3929328918457 43.7464599609375
H 40.829490661621094 59.61008071899414 44.50339889526367
C 42.13165283203125 57.255615234375 44.59852981567383
H 42.60237121582031 56.35631561279297 44.99299621582031
C 42.65054702758789 57.694725036621094 43.29924392700195
H 42.11073684692383 58.54792785644531 42.8911018371582
C 43.59475326538086 57.1210823059082 42.55775451660156
H 44.04171371459961 56.201759338378906 42.933250427246094
C 44.2862663269043 57.57292175292969 41.383487701416016
C 44.8487548828125 56.390716552734375 40.571224212646484
H 45.93403625488281 56.31715774536133 40.667213439941406
H 44.3097038269043 55.4737663269043 40.81840133666992
H 44.695045471191406 56.57500457763672 39.50592041015625
C 44.356327056884766 58.83699417114258 40.925106048583984
H 43.86408615112305 59.56656265258789 41.566471099853516
C 45.03911590576172 59.26353073120117 39.724090576171875
H 45.522300720214844 58.52240753173828 39.089115142822266
C 45.186710357666016 60.51529312133789 39.374305725097656
H 44.78189468383789 61.25418472290039 40.06429672241211
C 45.860191345214844 60.98686218261719 38.25408172607422
H 46.65753936767578 60.329158782958984 37.91118240356445
C 45.677337646484375 62.068119049072266 37.512874603271484
C 44.58640670776367 62.96304702758789 37.7556037902832
H 43.69085693359375 62.36787033081055 37.9459228515625
H 44.785308837890625 63.60084915161133 38.619380950927734
H 44.281036376953125 63.64658737182617 36.96063232421875
C 46.471466064453125 62.39244842529297 36.344120025634766
H 46.48593521118164 63.440189361572266 36.04756164550781
C 47.26331329345703 61.499141693115234 35.7095947265625
H 47.37449264526367 60.44624328613281 35.96448516845703
C 47.91774368286133 61.99952697753906 34.53841018676758
H 47.36556625366211 62.83253479003906 34.10584259033203
C 49.05626678466797 61.51614761352539 34.04476547241211
C 49.79601287841797 60.39067840576172 34.65456008911133
H 49.33778762817383 59.409881591796875 34.511287689208984
H 50.757381439208984 60.2166862487793 34.166744232177734
H 50.04801559448242 60.60011672973633 35.69623947143555
C 49.739654541015625 62.219940185546875 32.97086715698242
H 49.85551834106445 63.294002532958984 33.10831069946289
C 50.212799072265625 61.64128112792969 31.83585548400879
H 50.12688446044922 60.556114196777344 31.804996490478516
C 50.85306930541992 62.22126007080078 30.651273727416992
C 50.793888092041016 63.53176498413086 30.30796241760254
C 50.19552230834961 64.65902709960938 31.08437728881836
H 49.14493942260742 64.4262466430664 31.27025604248047
H 50.727272033691406 64.9223403930664 32.001094818115234
H 50.191688537597656 65.5859146118164 30.507030487060547
C 51.44670867919922 64.09708404541016 29.083829879760742
H 52.42721176147461 64.47776794433594 29.377361297607422
H 50.97440719604492 65.0278549194336 28.762802124023438
C 51.69194793701172 63.0345573425293 27.92780876159668
H 52.24663162231445 63.59272766113281 27.170679092407227
H 50.82847595214844 62.6567497253418 27.37631607055664
C 52.397823333740234 61.82777786254883 28.667865753173828
H 52.74245834350586 61.04343795776367 27.990739822387695
H 53.34590530395508 62.16115188598633 29.09502601623535
C 51.5932731628418 61.1493034362793 29.782615661621094
C 50.78268051147461 60.037715911865234 29.113849639892578
H 50.556785583496094 59.29390335083008 29.88077735900879
H 49.907325744628906 60.335060119628906 28.532638549804688
H 51.421356201171875 59.538944244384766 28.381874084472656
C 52.577266693115234 60.361637115478516 30.60952377319336
H 53.173587799072266 59.64070510864258 30.04639434814453
H 53.26021194458008 61.058082580566406 31.100454330444336
H 52.06741714477539 59.79022979736328 31.387990951538086
