207
Triad, Carotenoid-Porphyrin-C60
C 51.66301345825195 45.16777420043945 29.14447021484375
C 51.516422271728516 50.66159439086914 32.22089767456055
C 53.0544548034668 49.04288864135742 32.233909606933594
C 53.850955963134766 47.20481872558594 30.923789978027344
C 49.69870376586914 51.51972198486328 30.871906280517578
C 50.14356231689453 50.934879302978516 32.06232833862305
C 51.92765426635742 51.440670013427734 30.014419555664062
C 53.901817321777344 49.47046661376953 30.026138305664062
C 52.13279342651367 46.52144241333008 27.4295597076416
C 50.543190002441406 51.74138641357422 29.80758285522461
C 52.88916778564453 45.699729919433594 29.38906478881836
C 47.46397018432617 49.260963439941406 29.032569885253906
C 48.45252990722656 50.86760330200195 30.58635711669922
C 48.26591873168945 47.46078872680664 27.6907901763916
C 50.34016799926758 47.94365692138672 26.570375442504883
C 49.38679122924805 46.99839782714844 26.98696517944336
C 49.00664138793945 50.78390121459961 28.289306640625
C 52.4329719543457 51.01585006713867 28.790292739868164
C 53.44358444213867 50.0498161315918 28.792415618896484
C 52.28264236450195 48.89375686645508 27.114683151245117
C 49.898860931396484 46.4773063659668 33.33312225341797
C 48.9764404296875 47.63569259643555 33.02717590332031
C 51.27971267700195 47.22895431518555 33.32463455200195
C 51.02138900756836 48.59223556518555 33.33852767944336
C 48.99516296386719 45.6671257019043 28.790353775024414
C 47.949180603027344 47.605125427246094 32.088531494140625
C 53.23943328857422 45.98783874511719 30.6804141998291
C 47.171566009521484 48.40470886230469 30.108543395996094
C 48.183353424072266 49.962100982666016 31.639545440673828
C 47.98707962036133 46.57350158691406 28.75962257385254
C 52.39286422729492 46.79570007324219 32.59468460083008
C 48.85667037963867 49.75296401977539 27.282033920288086
C 50.02524185180664 49.29118347167969 26.638797760009766
C 53.3782958984375 48.954444885253906 27.971078872680664
C 51.368892669677734 50.88857650756836 27.933990478515625
C 49.89813995361328 45.247127532958984 32.29496765136719
C 48.83212661743164 45.42905807495117 31.223527908325195
C 51.13882827758789 45.02177810668945 31.49614906311035
C 49.45564651489258 45.16170120239258 30.025680541992188
C 51.67133331298828 47.70085906982422 26.819480895996094
C 49.66374206542969 48.803157806396484 33.19588851928711
C 52.316986083984375 45.712974548339844 31.708036422729492
C 50.8095588684082 44.851314544677734 30.19272232055664
C 53.322689056396484 47.690582275390625 32.12479782104492
C 49.87183380126953 45.870460510253906 27.702632904052734
C 47.90806579589844 46.51264190673828 31.163097381591797
C 47.515411376953125 48.75777053833008 31.42013931274414
C 51.94375228881836 49.50992202758789 32.88411331176758
C 49.23920440673828 50.00004196166992 32.5567741394043
C 51.244815826416016 49.890499114990234 26.976011276245117
C 47.50908660888672 47.0034065246582 29.989599227905273
C 51.200496673583984 45.61198425292969 27.89261245727539
C 52.437503814697266 50.942665100097656 31.240009307861328
C 53.38484191894531 49.9249153137207 31.249971389770508
C 54.123897552490234 48.09440231323242 29.879549026489258
C 53.1651611328125 46.57147216796875 28.340612411499023
C 48.080482482910156 50.5311393737793 29.31966781616211
C 47.99398422241211 48.76339340209961 27.84894561767578
C 53.84233474731445 47.755218505859375 28.573869705200195
C 50.20808410644531 51.40260314941406 28.517780303955078
C 49.662635803222656 45.83943557739258 34.649593353271484
N 49.49721908569336 44.55677032470703 34.5726318359375
C 49.53739929199219 44.06993103027344 33.20756912231445
H 48.53346633911133 43.77333450317383 32.89324951171875
H 50.24197006225586 43.263343811035156 32.989288330078125
C 49.60818099975586 47.998504638671875 38.49958419799805
C 48.63928985595703 48.21403884887695 37.46064376831055
H 47.815879821777344 48.87629699707031 37.71556091308594
C 48.696632385253906 47.521812438964844 36.21623611450195
H 47.95271301269531 47.79759979248047 35.473201751708984
C 49.69902038574219 46.57322311401367 35.967464447021484
C 50.555599212646484 46.94757080078125 38.17940902709961
H 51.273712158203125 46.57181930541992 38.90376281738281
C 50.624359130859375 46.35736083984375 36.95594024658203
H 51.30597686767578 45.5347785949707 36.7551155090332
C 49.51011276245117 48.63842010498047 39.8499755859375
C 48.42282485961914 49.6440544128418 40.0282096862793
C 48.0123291015625 50.632530212402344 39.197601318359375
H 48.43760681152344 50.87924575805664 38.23039245605469
C 46.89043045043945 51.29556655883789 39.86552429199219
H 46.26313400268555 52.053592681884766 39.40822982788086
C 46.730690002441406 50.728538513183594 41.09661102294922
N 47.55855941772461 49.60240173339844 41.10259246826172
H 47.612667083740234 48.96778106689453 41.88773727416992
C 45.676475524902344 50.865901947021484 42.04907989501953
H 44.787776947021484 51.381019592285156 41.68743133544922
C 45.465599060058594 50.178916931152344 43.21931838989258
C 44.291473388671875 49.43852615356445 43.455291748046875
H 43.438114166259766 49.47970199584961 42.78647232055664
C 44.48507308959961 48.73196792602539 44.61226272583008
H 43.82284164428711 47.94619369506836 44.960453033447266
C 45.81233215332031 49.00971221923828 45.056251525878906
N 46.395851135253906 49.84918212890625 44.185482025146484
C 46.48040771484375 48.435882568359375 46.23151779174805
C 47.848899841308594 48.35507583618164 46.175350189208984
C 48.84510040283203 48.56958770751953 47.15716552734375
H 48.746849060058594 49.085655212402344 48.10650634765625
C 50.067230224609375 48.341819763183594 46.61667251586914
H 51.03996276855469 48.397369384765625 47.094093322753906
C 49.95223617553711 48.0607795715332 45.24186706542969
N 48.576133728027344 48.10426330566406 45.046485900878906
H 48.14042663574219 47.84678649902344 44.17128372192383
C 50.96124267578125 47.939823150634766 44.34605026245117
H 51.96674346923828 47.96644592285156 44.76339340209961
C 51.01664352416992 47.938697814941406 42.81975173950195
C 52.22607421875 47.99427795410156 41.96104431152344
H 53.225093841552734 48.04789352416992 42.380950927734375
C 51.74466323852539 48.26893615722656 40.69106674194336
H 52.353126525878906 48.64646530151367 39.875919342041016
C 50.390262603759766 48.21372985839844 40.78507614135742
N 49.941226959228516 48.01861572265625 42.05788040161133
C 44.32749938964844 47.99123001098633 49.953086853027344
C 45.661170959472656 47.44415283203125 49.83720397949219
H 46.103126525878906 46.903873443603516 50.670475006103516
C 46.38943862915039 47.62650680541992 48.636314392089844
H 47.372352600097656 47.16238021850586 48.62973403930664
C 45.77198028564453 48.17412567138672 47.49437713623047
C 43.8003044128418 48.61499786376953 48.85505294799805
H 42.8256721496582 49.091800689697266 48.920780181884766
C 44.5354118347168 48.7503547668457 47.678993225097656
H 44.13833999633789 49.40770721435547 46.90971374511719
N 43.609317779541016 47.78329849243164 51.16831588745117
H 42.625423431396484 47.659488677978516 50.982017517089844
C 43.98065948486328 48.06329345703125 52.402435302734375
O 45.103355407714844 48.26001739501953 52.79493713378906
C 42.81114196777344 48.040748596191406 53.43460464477539
C 43.149757385253906 48.060611724853516 54.7955322265625
H 44.16581344604492 48.156822204589844 55.16963195800781
C 42.152339935302734 48.02851867675781 55.78593444824219
C 40.81316375732422 47.90067672729492 55.42632293701172
H 40.00402069091797 47.91705322265625 56.1519889831543
C 40.48937225341797 47.91077423095703 54.09381866455078
H 39.44156265258789 47.964576721191406 53.80962371826172
C 41.46500015258789 47.83406448364258 53.089744567871094
H 41.193077087402344 47.927345275878906 52.04145050048828
C 42.59564208984375 48.02477264404297 57.167903900146484
H 43.677589416503906 48.03281784057617 57.29139709472656
C 41.79759216308594 47.92437744140625 58.25372314453125
H 40.71950149536133 47.77399826049805 58.22169876098633
C 42.26473617553711 48.006317138671875 59.64535140991211
C 41.114646911621094 48.156532287597656 60.57183074951172
H 41.23054885864258 49.027366638183594 61.220428466796875
H 41.11998748779297 47.35114288330078 61.30924606323242
H 40.101375579833984 48.23100662231445 60.17158126831055
C 43.554290771484375 47.983638763427734 60.05743408203125
H 44.36271286010742 47.93618392944336 59.3293342590332
C 43.98912811279297 48.12934494018555 61.43035888671875
H 43.261016845703125 48.38058090209961 62.20020294189453
C 45.27641296386719 48.04594421386719 61.80625534057617
H 45.935123443603516 47.737667083740234 60.99570846557617
C 45.85794448852539 48.345428466796875 63.07971954345703
C 45.01527786254883 48.962337493896484 64.1788101196289
H 43.99683380126953 49.22195053100586 63.88242721557617
H 44.831626892089844 48.40559768676758 65.10009765625
H 45.49394226074219 49.907161712646484 64.44461822509766
C 47.109195709228516 47.95396423339844 63.396488189697266
H 47.68940734863281 47.49440002441406 62.597694396972656
C 47.78343200683594 48.367706298828125 64.67859649658203
H 47.25998306274414 49.06675720214844 65.32917785644531
C 48.97001266479492 47.984127044677734 65.06046295166016
H 49.51029968261719 47.27644348144531 64.43340301513672
C 49.55077362060547 48.35076904296875 66.36503601074219
H 48.97615432739258 49.126522064208984 66.86896514892578
C 50.51558303833008 47.82592010498047 67.10844421386719
C 51.23891067504883 46.61669921875 66.6489486694336
H 52.08197784423828 46.43281555175781 67.31819152832031
H 50.6239013671875 45.71435546875 66.64678955078125
H 51.648197174072266 46.810089111328125 65.65519714355469
C 50.79220199584961 48.325340270996094 68.34684753417969
H 51.220298767089844 47.52952575683594 68.95458221435547
C 50.656829833984375 49.51546859741211 68.88652038574219
H 50.33712387084961 50.368690490722656 68.29010009765625
C 50.983150482177734 49.85667037963867 70.3207778930664
H 51.56987380981445 49.11580276489258 70.86187744140625
C 50.669063568115234 50.96307373046875 70.98310852050781
C 49.998146057128906 52.11845016479492 70.34880828857422
H 50.15660858154297 53.0232048034668 70.93937683105469
H 50.44819641113281 52.33696746826172 69.37815856933594
H 48.93452835083008 51.888328552246094 70.2581787109375
C 50.99004364013672 51.15840530395508 72.38162994384766
H 50.428955078125 51.916831970214844 72.92558288574219
C 51.879207611083984 50.58835220336914 73.19534301757812
H 52.45185089111328 49.712520599365234 72.89380645751953
C 52.016780853271484 50.981361389160156 74.61200714111328
C 53.19205093383789 51.55860900878906 75.09832000732422
C 54.435394287109375 51.89540481567383 74.28380584716797
H 55.36932373046875 51.44661331176758 74.62849426269531
H 54.23149490356445 51.80472946166992 73.21485137939453
H 54.568363189697266 52.95815658569336 74.4967269897461
C 53.501869201660156 51.69126892089844 76.53097534179688
H 54.02561569213867 52.64938735961914 76.54389953613281
H 54.146339416503906 50.86637496948242 76.8418960571289
C 52.32242965698242 51.83782958984375 77.37625122070312
H 51.76778793334961 52.75672149658203 77.17507934570312
H 52.634586334228516 52.02724838256836 78.4053955078125
C 51.359458923339844 50.63703918457031 77.08739471435547
H 51.902183532714844 49.70714569091797 77.26962280273438
H 50.60301208496094 50.43397903442383 77.84833526611328
C 50.8800163269043 50.68532180786133 75.60094451904297
C 50.354888916015625 49.28567123413086 75.34176635742188
H 49.96160125732422 49.222904205322266 74.32498168945312
H 51.21419906616211 48.6168212890625 75.25997924804688
H 49.676876068115234 48.86998748779297 76.09007263183594
C 49.69243621826172 51.573875427246094 75.55552673339844
H 49.9675178527832 52.55543518066406 75.94709777832031
H 49.23521423339844 51.64899444580078 74.56670379638672
H 48.97111511230469 51.1917839050293 76.2809066772461
