207
Triad, Carotenoid-Porphyrin-C60
C 56.73158645629883 66.27874755859375 46.83671569824219
C 52.77058029174805 64.03987884521484 42.19500732421875
C 52.26371383666992 65.26307678222656 44.01172637939453
C 53.4228401184082 66.72320556640625 45.599220275878906
C 54.73322677612305 63.451820373535156 40.90046691894531
C 53.68315505981445 63.113521575927734 41.73976516723633
C 54.00533676147461 65.79000854492188 41.00652313232422
C 53.36854934692383 67.25244140625 43.26993179321289
C 57.24342727661133 67.69356536865234 45.23077392578125
C 54.855228424072266 64.80984497070312 40.576446533203125
C 55.58388137817383 67.06278228759766 46.571773529052734
C 58.06088638305664 63.0897102355957 42.208553314208984
C 55.86098098754883 62.69548416137695 41.192684173583984
C 59.1136589050293 64.47634887695312 43.77817153930664
C 58.51767349243164 66.82514190673828 43.387474060058594
C 59.0328483581543 65.78748321533203 44.22789001464844
C 57.22725296020508 64.69087982177734 40.888572692871094
C 54.67055130004883 66.97662353515625 41.23832702636719
C 54.336849212646484 67.71965789794922 42.390357971191406
C 56.67679977416992 68.09245300292969 42.90128707885742
C 54.19569778442383 62.2647819519043 46.307437896728516
C 54.600772857666016 61.643978118896484 44.96902847290039
C 53.20785903930664 63.269805908203125 45.694496154785156
C 52.865962982177734 62.9829216003418 44.41096878051758
C 58.55189895629883 64.41975402832031 45.943424224853516
C 56.0113639831543 61.498497009277344 44.653411865234375
C 54.34144973754883 66.48458099365234 46.60204315185547
C 57.74161148071289 62.25444412231445 43.290035247802734
C 55.52920150756836 61.89909362792969 42.29978942871094
C 58.805728912353516 63.619911193847656 44.8271484375
C 53.13399124145508 64.57044982910156 46.14321517944336
C 58.248714447021484 65.28187561035156 41.623878479003906
C 58.1158332824707 66.58826446533203 42.128944396972656
C 55.32283401489258 68.23006439208984 43.22080612182617
C 55.9949836730957 66.77088928222656 40.96814727783203
C 55.37259292602539 62.844383239746094 47.155914306640625
C 56.7781867980957 62.86304473876953 46.5130729675293
C 55.241580963134766 64.37092590332031 47.273616790771484
C 57.463130950927734 64.01404571533203 46.75981903076172
C 57.6893196105957 67.78761291503906 43.878787994384766
C 53.780948638916016 62.03693389892578 43.909366607666016
C 54.148677825927734 65.1204833984375 46.958194732666016
C 56.5478630065918 64.93582916259766 47.16617965698242
C 52.62321853637695 65.61101531982422 45.337825775146484
C 58.631412506103516 65.73845672607422 45.52967834472656
C 57.05025863647461 62.10974884033203 45.41816711425781
C 56.4423942565918 61.5997428894043 43.29782485961914
C 52.36357498168945 63.98612976074219 43.56538009643555
C 54.20985794067383 62.138938903808594 42.60479736328125
C 57.01340866088867 67.32315826416016 41.76409912109375
C 58.11013412475586 62.491455078125 44.59823989868164
C 57.744258880615234 66.68106079101562 46.077510833740234
C 52.91390609741211 65.38955688476562 41.82817077636719
C 52.6179313659668 66.12327575683594 42.96837615966797
C 53.73476791381836 67.5860366821289 44.606658935546875
C 55.90218734741211 67.87802124023438 45.52946853637695
C 57.107601165771484 63.341251373291016 41.2320671081543
C 58.74013900756836 64.25342559814453 42.44832229614258
C 54.94607925415039 68.22476959228516 44.558231353759766
C 56.08120346069336 65.43219757080078 40.567237854003906
C 53.5916862487793 61.279293060302734 47.28401184082031
N 54.2164192199707 61.19321823120117 48.390689849853516
C 55.351261138916016 62.062625885009766 48.518245697021484
H 56.25063705444336 61.448177337646484 48.608978271484375
H 55.1762580871582 62.62483215332031 49.4390869140625
C 49.57333755493164 59.69874572753906 46.90875244140625
C 50.55319595336914 59.44271469116211 45.93383026123047
H 50.27761459350586 58.87355422973633 45.04970169067383
C 51.79122543334961 59.975921630859375 46.04583740234375
H 52.51557540893555 59.793434143066406 45.256160736083984
C 52.22807693481445 60.72948455810547 47.11174392700195
C 49.947811126708984 60.49344253540039 48.02916717529297
H 49.184635162353516 60.731178283691406 48.76578903198242
C 51.28383255004883 61.01032257080078 48.164554595947266
H 51.66067123413086 61.56654739379883 49.0190544128418
C 48.2371940612793 59.154422760009766 46.82808303833008
C 47.89290237426758 58.19940185546875 45.78449630737305
C 47.92750930786133 58.341392517089844 44.44723892211914
H 48.2389030456543 59.22267150878906 43.896240234375
C 47.290889739990234 57.14216995239258 43.85760498046875
H 47.16279220581055 56.92131042480469 42.80307388305664
C 46.927120208740234 56.35525131225586 44.8784294128418
N 47.25052261352539 57.01519012451172 46.00188446044922
H 46.961795806884766 56.770484924316406 46.93936538696289
C 46.2357292175293 55.12797164916992 44.83900833129883
H 46.10360336303711 54.70668029785156 43.843528747558594
C 45.77907180786133 54.33184814453125 45.869667053222656
C 44.683963775634766 53.392982482910156 45.65169906616211
H 44.182682037353516 53.086997985839844 44.739383697509766
C 44.31936264038086 52.997962951660156 46.921749114990234
H 43.458377838134766 52.394168853759766 47.188899993896484
C 45.088314056396484 53.77518844604492 47.89051818847656
N 45.944950103759766 54.538475036621094 47.24483108520508
C 45.00373458862305 53.77848815917969 49.377349853515625
C 44.7255744934082 54.926673889160156 50.11445236206055
C 43.632564544677734 55.21062088012695 51.047550201416016
H 42.9721565246582 54.44527053833008 51.441654205322266
C 43.62626266479492 56.554298400878906 51.2651481628418
H 42.97092056274414 57.154090881347656 51.88804244995117
C 44.64597702026367 57.171207427978516 50.41294479370117
N 45.28329086303711 56.13092803955078 49.81583023071289
H 46.08732986450195 56.21147155761719 49.20825958251953
C 44.89496994018555 58.518226623535156 50.23889923095703
H 44.23274612426758 59.17061996459961 50.8061408996582
C 45.79433822631836 59.20088577270508 49.3291130065918
C 45.981449127197266 60.586631774902344 49.13978576660156
H 45.31961441040039 61.333160400390625 49.56627655029297
C 46.91397476196289 60.7030143737793 48.16221237182617
H 47.35622024536133 61.58721923828125 47.71519088745117
C 47.35104751586914 59.39756393432617 47.874855041503906
N 46.65815353393555 58.56071472167969 48.53146743774414
C 45.46396255493164 49.963104248046875 51.50272750854492
C 45.270076751708984 51.18516159057617 52.144779205322266
H 45.09476852416992 51.2371711730957 53.216285705566406
C 45.233280181884766 52.406192779541016 51.469120025634766
H 45.201480865478516 53.35968017578125 51.99009704589844
C 45.242305755615234 52.44337463378906 50.05946731567383
C 45.4931755065918 49.97903060913086 50.151145935058594
H 45.6524543762207 49.029876708984375 49.64585494995117
C 45.48550033569336 51.15586471557617 49.41164016723633
H 45.60300827026367 51.091495513916016 48.33292770385742
N 45.822025299072266 48.83026885986328 52.21144485473633
H 46.3875617980957 48.96674728393555 53.03584289550781
C 45.358341217041016 47.58890151977539 51.89308547973633
O 44.50735855102539 47.453704833984375 51.051265716552734
C 45.97031784057617 46.437747955322266 52.580963134765625
C 45.59418869018555 45.089603424072266 52.42827606201172
H 44.757381439208984 44.94682312011719 51.74935531616211
C 46.2852897644043 43.96772384643555 52.919193267822266
C 47.42226791381836 44.24955368041992 53.67488479614258
H 47.974178314208984 43.42890167236328 54.12598419189453
C 47.84079360961914 45.583534240722656 54.012332916259766
H 48.69558334350586 45.83885955810547 54.63338088989258
C 47.0263786315918 46.64607238769531 53.40617370605469
H 47.25656509399414 47.676673889160156 53.6639404296875
C 45.8337516784668 42.64779281616211 52.6085319519043
H 44.87874984741211 42.68408966064453 52.08644485473633
C 46.30043411254883 41.439205169677734 52.90312576293945
H 47.213687896728516 41.52013397216797 53.490787506103516
C 45.9248161315918 40.0591926574707 52.530616760253906
C 44.87534713745117 40.05241394042969 51.48469924926758
H 44.5590705871582 39.077938079833984 51.10677719116211
H 45.31892776489258 40.709354400634766 50.733612060546875
H 43.952640533447266 40.53544235229492 51.81296920776367
C 46.40500259399414 38.89543914794922 52.98906707763672
H 47.132938385009766 39.04621124267578 53.78487014770508
C 46.035831451416016 37.50323486328125 52.72683334350586
H 45.10409927368164 37.240806579589844 52.22791290283203
C 46.78920364379883 36.48343276977539 53.20044708251953
H 47.70734786987305 36.79745864868164 53.694725036621094
C 46.54771041870117 35.07380676269531 53.03912353515625
C 47.46901321411133 34.31617736816406 53.90761947631836
H 48.043575286865234 34.93982696533203 54.59565353393555
H 46.87919998168945 33.63163757324219 54.52080154418945
H 48.141666412353516 33.69816970825195 53.30923843383789
C 45.760128021240234 34.467689514160156 52.142059326171875
H 45.1446418762207 35.03369903564453 51.444400787353516
C 45.74057388305664 33.02121353149414 51.95465850830078
H 46.367740631103516 32.38775634765625 52.58021545410156
C 44.93546676635742 32.36701202392578 51.11894989013672
H 44.275630950927734 32.94895935058594 50.47716522216797
C 44.843807220458984 30.90633773803711 51.03972244262695
H 45.3031120300293 30.357234954833984 51.8603630065918
C 44.06868362426758 30.18566131591797 50.23957061767578
C 43.236392974853516 30.871366500854492 49.13840103149414
H 42.487735748291016 30.269718170166016 48.618797302246094
H 42.758602142333984 31.788288116455078 49.4897346496582
H 43.87412643432617 31.221391677856445 48.324005126953125
C 43.68954086303711 28.72586441040039 50.3111572265625
H 42.885799407958984 28.411481857299805 49.64701843261719
C 44.3698844909668 27.767311096191406 51.037803649902344
H 45.1071662902832 28.092771530151367 51.77021026611328
C 43.99778366088867 26.351354598999023 51.056461334228516
H 43.375850677490234 25.98463249206543 50.2412109375
C 44.44124221801758 25.481210708618164 51.98152542114258
C 45.32529830932617 25.8165340423584 53.12870407104492
H 46.33195114135742 25.64681625366211 52.74100875854492
H 45.22481155395508 26.84033203125 53.49504089355469
H 45.13215255737305 25.09853744506836 53.92848205566406
C 43.86411666870117 24.119462966918945 52.038734436035156
H 42.84822463989258 24.022480010986328 51.65861129760742
C 44.44169998168945 23.00201988220215 52.517295837402344
H 45.441158294677734 23.114036560058594 52.93497085571289
C 43.646976470947266 21.750085830688477 52.614830017089844
C 43.0304069519043 21.188495635986328 51.558685302734375
C 42.96287155151367 21.763248443603516 50.17399215698242
H 43.8439826965332 22.329463958740234 49.864967346191406
H 42.784847259521484 20.997636795043945 49.41596221923828
H 42.22080612182617 22.5616455078125 50.107826232910156
C 42.1036491394043 19.93221664428711 51.65812683105469
H 42.70779037475586 19.16043472290039 51.176639556884766
H 41.2957878112793 20.040300369262695 50.931396484375
C 41.61391067504883 19.703432083129883 53.09401321411133
H 41.19589614868164 18.694740295410156 53.11036682128906
H 40.76985549926758 20.38258934020996 53.2310676574707
C 42.7877082824707 19.83745765686035 54.04576110839844
H 42.48575973510742 19.560001373291016 55.05784225463867
H 43.58381271362305 19.136608123779297 53.78593444824219
C 43.480838775634766 21.21925926208496 54.02125930786133
C 42.793949127197266 22.178699493408203 54.936588287353516
H 43.0322380065918 22.033748626708984 55.992366790771484
H 43.101566314697266 23.18977928161621 54.661720275878906
H 41.70476150512695 22.197580337524414 54.86061096191406
C 44.813716888427734 20.998857498168945 54.69792175292969
H 44.71199417114258 20.458663940429688 55.6414794921875
H 45.421451568603516 20.31465721130371 54.10211181640625
H 45.37041091918945 21.938060760498047 54.71928024291992
