207
Triad, Carotenoid-Porphyrin-C60
C 47.786773681640625 48.340824127197266 38.138065338134766
C 41.537452697753906 46.84462356567383 38.99219512939453
C 42.85833740234375 48.557003021240234 39.88798141479492
C 44.857086181640625 49.8452262878418 39.45816421508789
C 41.71189880371094 45.32920837402344 37.174583435058594
C 41.613616943359375 45.558170318603516 38.56502914428711
C 41.627227783203125 47.651878356933594 36.7126579284668
C 43.09928894042969 49.81673049926758 37.76708221435547
C 47.036094665527344 49.090938568115234 36.14651870727539
C 41.66105651855469 46.38035202026367 36.22865295410156
C 46.90021514892578 49.430580139160156 38.37454605102539
C 44.81829833984375 43.979042053222656 35.813270568847656
C 42.67005157470703 44.378089904785156 36.82452392578125
C 46.82344055175781 45.14896774291992 35.38874816894531
C 46.431312561035156 47.4145393371582 34.464576721191406
C 47.279998779296875 46.49507522583008 35.13337707519531
C 43.36116027832031 45.377532958984375 34.77975845336914
C 42.358299255371094 48.52421569824219 35.86739730834961
C 43.13801574707031 49.53921890258789 36.418148040771484
C 44.942657470703125 49.00894546508789 34.92842483520508
C 45.441001892089844 45.58536148071289 41.171051025390625
C 44.613487243652344 44.58817672729492 40.31728744506836
C 44.48249816894531 46.7148551940918 41.1276741027832
C 43.255645751953125 46.35982131958008 40.608558654785156
C 48.016197204589844 45.812744140625 37.166019439697266
C 45.208160400390625 43.886810302734375 39.266815185546875
C 46.14031982421875 49.41492462158203 39.55211639404297
C 45.30323791503906 43.54142379760742 37.060546875
C 43.196189880371094 44.01561737060547 38.0356559753418
C 47.362335205078125 44.7077522277832 36.6031494140625
C 44.927490234375 48.03028869628906 40.89925765991211
C 44.68403625488281 45.669525146484375 34.30161666870117
C 45.1328125 47.00127029418945 34.08798599243164
C 44.395111083984375 49.905845642089844 35.90808868408203
C 42.86048889160156 47.739627838134766 34.8377571105957
C 46.861236572265625 45.877784729003906 40.65148162841797
C 47.25249481201172 45.15172576904297 39.3974609375
C 47.186012268066406 47.350868225097656 40.27135467529297
C 47.92340850830078 46.026634216308594 38.542137145996094
C 46.29331970214844 48.699424743652344 35.02958297729492
C 43.30595397949219 45.01091384887695 40.20850372314453
C 46.21282196044922 48.35530471801758 40.37525177001953
C 47.91918182373047 47.29245376586914 39.08368682861328
C 44.116729736328125 48.952823638916016 40.298133850097656
C 48.00408935546875 46.87735366821289 36.26539993286133
C 46.490325927734375 44.12007141113281 38.80299377441406
C 44.484832763671875 43.51887512207031 38.1833610534668
C 42.34064483642578 47.270416259765625 40.08871841430664
C 42.56231689453125 44.658180236816406 39.1061897277832
C 44.19744873046875 48.011863708496094 34.36223602294922
C 46.545989990234375 43.92021179199219 37.47623825073242
C 47.881065368652344 48.19667434692383 36.7412223815918
C 41.62727355957031 47.91739273071289 38.102108001708984
C 42.37823486328125 49.011905670166016 38.6405029296875
C 44.31282043457031 50.24873352050781 38.205936431884766
C 46.40727996826172 49.80958938598633 37.14350891113281
C 43.461875915527344 44.326576232910156 35.668514251708984
C 45.56095886230469 44.80695343017578 34.9806022644043
C 45.08650207519531 50.216026306152344 37.02840805053711
C 42.440345764160156 46.392154693603516 35.044254302978516
C 45.707252502441406 45.00716018676758 42.52272415161133
N 46.95697784423828 44.98963928222656 42.82603454589844
C 47.81988525390625 45.31321716308594 41.7340202331543
H 48.3077392578125 44.36513900756836 41.493614196777344
H 48.60089111328125 46.03582763671875 41.98404312133789
C 43.02948760986328 42.956932067871094 45.30398941040039
C 44.31428527832031 42.47012710571289 44.87353515625
H 44.615333557128906 41.482730865478516 45.214115142822266
C 45.12113952636719 43.13334655761719 43.96785354614258
H 46.07533264160156 42.67791748046875 43.71554946899414
C 44.75708770751953 44.33145523071289 43.437278747558594
C 42.70024108886719 44.197593688964844 44.76981735229492
H 41.86335754394531 44.72575759887695 45.21954345703125
C 43.52605438232422 44.861141204833984 43.80221939086914
H 43.29154968261719 45.853397369384766 43.42538833618164
C 42.060935974121094 42.27631378173828 46.3173713684082
C 42.49781799316406 41.076560974121094 47.02648162841797
C 42.920631408691406 39.85261154174805 46.632835388183594
H 43.02501678466797 39.49547576904297 45.61363220214844
C 43.27008819580078 39.09248352050781 47.8262939453125
H 43.58638000488281 38.059940338134766 47.931373596191406
C 42.930564880371094 39.84004592895508 48.89386749267578
N 42.55284881591797 41.10416030883789 48.40589141845703
H 42.329689025878906 41.92473220825195 48.95269012451172
C 42.883262634277344 39.505008697509766 50.289695739746094
H 43.09033203125 38.46845245361328 50.551605224609375
C 42.216094970703125 40.16130065917969 51.28141784667969
C 41.965354919433594 39.5193977355957 52.48529815673828
H 42.0662841796875 38.45653533935547 52.6785888671875
C 41.37409210205078 40.4940299987793 53.21327209472656
H 40.90044403076172 40.289676666259766 54.16779327392578
C 41.261985778808594 41.695682525634766 52.43577575683594
N 41.81263732910156 41.474430084228516 51.20021057128906
C 40.596649169921875 43.018131256103516 52.714942932128906
C 39.72527313232422 43.6575927734375 51.87376403808594
C 38.39854431152344 44.12336349487305 52.217018127441406
H 37.90472412109375 43.985877990722656 53.17329406738281
C 37.813499450683594 44.48492431640625 51.04142761230469
H 36.83161163330078 44.93083953857422 50.921905517578125
C 38.60894775390625 44.21683883666992 49.921424865722656
N 39.69183349609375 43.78384017944336 50.52845001220703
H 40.50054168701172 43.4943962097168 49.995216369628906
C 38.250152587890625 44.251495361328125 48.612098693847656
H 37.22355651855469 44.56181716918945 48.423065185546875
C 39.09049987792969 43.85551071166992 47.45906066894531
C 38.832862854003906 43.70707702636719 46.10392761230469
H 37.88938903808594 43.935813903808594 45.61940002441406
C 40.00354766845703 43.17268371582031 45.60449981689453
H 40.095054626464844 42.772682189941406 44.60008239746094
C 40.919639587402344 43.01313400268555 46.56555938720703
N 40.32380676269531 43.40110397338867 47.723655700683594
C 42.320091247558594 45.321678161621094 56.06909942626953
C 41.409202575683594 45.87294387817383 55.19458770751953
H 41.04267120361328 46.82497024536133 55.569923400878906
C 40.883262634277344 45.206764221191406 54.102989196777344
H 40.17686462402344 45.67918014526367 53.425193786621094
C 41.26371765136719 43.85056686401367 53.76752471923828
C 42.77247619628906 44.04026794433594 55.69908142089844
H 43.530250549316406 43.658775329589844 56.37865447998047
C 42.290565490722656 43.32761001586914 54.61076354980469
H 42.50633239746094 42.27080154418945 54.47596740722656
N 42.86650085449219 46.0537223815918 57.081871032714844
H 42.251243591308594 46.69294357299805 57.56242370605469
C 44.22374725341797 46.311767578125 57.40581512451172
O 45.123252868652344 45.72236633300781 56.811622619628906
C 44.395896911621094 47.27912139892578 58.53057861328125
C 45.47248077392578 48.13296127319336 58.568885803222656
H 46.25505065917969 48.13489532470703 57.81446075439453
C 45.62030029296875 49.11640548706055 59.501014709472656
C 44.54978942871094 49.35335159301758 60.35388946533203
H 44.60797882080078 50.20155334472656 61.03118896484375
C 43.51307678222656 48.430538177490234 60.43964385986328
H 42.790802001953125 48.50203323364258 61.24882507324219
C 43.42742919921875 47.4269905090332 59.52385711669922
H 42.67082977294922 46.666988372802734 59.70140838623047
C 46.79895782470703 50.05677032470703 59.41161346435547
H 47.4532470703125 49.78715896606445 58.583885192871094
C 47.077415466308594 51.133758544921875 60.226287841796875
H 46.50567626953125 51.3064079284668 61.13690948486328
C 48.22151184082031 51.9774055480957 60.21898651123047
C 48.10411834716797 53.25884246826172 60.91941833496094
H 48.445831298828125 54.00307083129883 60.197044372558594
H 48.6788330078125 53.24555587768555 61.84785461425781
H 47.05908203125 53.397315979003906 61.20433044433594
C 49.268310546875 51.746795654296875 59.367820739746094
H 49.27796936035156 50.81195068359375 58.809349060058594
C 50.57279968261719 52.53683090209961 59.34160614013672
H 50.75030517578125 53.333702087402344 60.06230163574219
C 51.462547302246094 52.415218353271484 58.36378479003906
H 51.313880920410156 51.609405517578125 57.646507263183594
C 52.73015594482422 53.12350845336914 58.08258819580078
C 53.067657470703125 54.28826141357422 58.963104248046875
H 52.60932922363281 54.159820556640625 59.94590759277344
H 54.09283447265625 54.310916900634766 59.33855438232422
H 52.681488037109375 55.23219299316406 58.57279968261719
C 53.54913330078125 52.707706451416016 57.108367919921875
H 53.29817199707031 51.774505615234375 56.606292724609375
C 54.781341552734375 53.37855911254883 56.7237548828125
H 54.82019805908203 54.426048278808594 57.019012451171875
C 55.80894470214844 52.757774353027344 56.138580322265625
H 55.798248291015625 51.691226959228516 55.918846130371094
C 56.99964141845703 53.4593505859375 55.778968811035156
H 57.01031494140625 54.45991897583008 56.20869445800781
C 58.121246337890625 52.92319107055664 55.26171112060547
C 58.198699951171875 51.409942626953125 55.13165283203125
H 58.18760681152344 50.8579216003418 56.07378387451172
H 57.35874938964844 51.178314208984375 54.473411560058594
H 59.090309143066406 51.04792404174805 54.615478515625
C 59.29461669921875 53.64572525024414 54.85838317871094
H 60.190521240234375 53.10183334350586 54.562652587890625
C 59.36815643310547 54.98887252807617 54.84815216064453
H 58.43994903564453 55.50852966308594 55.081207275390625
C 60.58759307861328 55.78643798828125 54.553497314453125
H 61.472808837890625 55.19533157348633 54.78351593017578
C 60.717071533203125 57.01023864746094 54.045188903808594
C 59.48815155029297 57.750003814697266 53.59925842285156
H 59.74617004394531 58.5296745300293 52.87953186035156
H 58.87705993652344 57.039573669433594 53.038612365722656
H 58.98585510253906 58.21377182006836 54.450782775878906
C 62.05071258544922 57.64950180053711 53.90165710449219
H 61.88318634033203 58.662017822265625 53.53742218017578
C 63.277305603027344 57.1543083190918 54.01689910888672
H 63.49848175048828 56.09965515136719 54.17413330078125
C 64.487548828125 57.93646240234375 53.7518310546875
C 64.66510772705078 59.249446868896484 54.21418762207031
C 63.65965270996094 60.030052185058594 54.972694396972656
H 63.21612548828125 60.72113800048828 54.25288391113281
H 62.968231201171875 59.33334732055664 55.45124053955078
H 64.14386749267578 60.559539794921875 55.79588317871094
C 65.78693389892578 60.15788269042969 53.80817413330078
H 66.15479278564453 60.909847259521484 54.50938415527344
H 65.38971710205078 60.73261260986328 52.968910217285156
C 67.01219177246094 59.40488052368164 53.298622131347656
H 67.56437683105469 58.91679763793945 54.10443878173828
H 67.74769592285156 60.02388381958008 52.780609130859375
C 66.53691101074219 58.37736892700195 52.28252410888672
H 65.97702026367188 58.860023498535156 51.47876739501953
H 67.39103698730469 57.86056900024414 51.83997344970703
C 65.68257141113281 57.284305572509766 53.020179748535156
C 65.19713592529297 56.290130615234375 51.91246795654297
H 66.13172912597656 55.966957092285156 51.44926452636719
H 64.6442642211914 55.42954635620117 52.294830322265625
H 64.53308868408203 56.888912200927734 51.28559875488281
C 66.54411315917969 56.36225128173828 53.880165100097656
H 66.5261459350586 56.772579193115234 54.89197540283203
H 66.20540618896484 55.32979202270508 53.98865509033203
H 67.59166717529297 56.4278564453125 53.57884979248047
