207
Triad, Carotenoid-Porphyrin-C60
C 58.05448913574219 63.414127349853516 43.192527770996094
C 54.079444885253906 58.49903869628906 44.61200714111328
C 56.2996826171875 58.5974235534668 44.722076416015625
C 58.068992614746094 60.233192443847656 44.74535369873047
C 52.23600769042969 60.03987503051758 44.5450439453125
C 53.00792694091797 59.0507698059082 43.947410583496094
C 53.67301940917969 59.97337341308594 46.49486541748047
C 56.406105041503906 60.036434173583984 46.547401428222656
C 57.22186279296875 64.13236999511719 45.175655364990234
C 52.54673767089844 60.52174758911133 45.83988952636719
C 58.509666442871094 62.53959655761719 44.16265106201172
C 52.06731414794922 63.27167510986328 42.94842529296875
C 51.77873229980469 60.9521369934082 43.59477996826172
C 53.838233947753906 64.8888931274414 43.12864685058594
C 54.962608337402344 64.7769546508789 45.20494842529297
C 54.97216033935547 65.16558837890625 43.85536575317383
C 51.96741485595703 62.7635383605957 45.15199279785156
C 54.3310546875 60.935890197753906 47.13912582397461
C 55.70027160644531 61.00529479980469 47.193763732910156
C 55.617462158203125 63.38481140136719 46.81003952026367
C 56.05213928222656 59.93391036987305 40.67048645019531
C 54.55902099609375 59.970977783203125 40.84901809692383
C 56.49451446533203 59.13936233520508 41.92748260498047
C 55.33586883544922 58.55684280395508 42.479740142822266
C 55.737762451171875 64.4411849975586 41.93511962890625
C 53.87688446044922 61.204681396484375 40.67817306518555
C 58.482154846191406 61.199249267578125 43.88750076293945
C 52.633575439453125 62.79518127441406 41.741607666015625
C 52.28192901611328 60.471702575683594 42.364200592041016
C 54.376914978027344 64.38587951660156 41.91579818725586
C 57.477073669433594 59.52751922607422 42.73796844482422
C 52.66546630859375 64.00172424316406 44.999969482421875
C 53.81086730957031 64.24237060546875 45.74896240234375
C 56.350372314453125 62.24863052368164 47.075077056884766
C 53.59254455566406 62.128360748291016 46.9482307434082
C 56.822357177734375 61.24410629272461 40.45996856689453
C 55.94129943847656 62.5122184753418 40.4859504699707
C 57.791526794433594 61.63632583618164 41.54302215576172
C 56.550025939941406 63.52961349487305 41.236454010009766
C 56.07499694824219 64.23910522460938 45.85350036621094
C 54.169395446777344 59.106727600097656 41.84421920776367
C 58.087799072265625 60.765743255615234 42.63003158569336
C 57.62671661376953 62.98484420776367 41.911102294921875
C 57.39277648925781 59.20664596557617 44.05979919433594
C 56.170799255371094 64.90807342529297 43.150970458984375
C 54.50853729248047 62.402400970458984 40.58208465576172
C 52.67985534667969 61.38862991333008 41.42882537841797
C 55.24726867675781 58.22922897338867 43.903228759765625
C 53.06695556640625 59.367469787597656 42.601661682128906
C 54.24046325683594 63.3990592956543 46.76968765258789
C 53.745086669921875 63.396793365478516 41.19117736816406
C 57.311431884765625 64.41594696044922 43.768959045410156
C 54.44281768798828 58.94249725341797 45.852821350097656
C 55.82152557373047 58.95600509643555 45.936798095703125
C 57.56220245361328 60.65979766845703 45.96846008300781
C 58.027015686035156 62.95368957519531 45.39398956298828
C 51.63031005859375 62.3266487121582 43.88026809692383
C 52.694549560546875 64.30367279052734 43.64234924316406
C 57.56800079345703 62.0468864440918 46.32553482055664
C 52.46540832519531 61.86262130737305 46.12259292602539
C 56.37176513671875 59.150482177734375 39.41171646118164
N 57.14280700683594 59.7696418762207 38.637107849121094
C 57.552955627441406 61.08106231689453 39.09148406982422
H 57.25178527832031 61.834327697753906 38.3589973449707
H 58.639137268066406 61.19932174682617 39.061851501464844
C 55.328857421875 54.9652099609375 39.18471908569336
C 56.550262451171875 55.3223876953125 39.720375061035156
H 57.25830841064453 54.594974517822266 40.10910415649414
C 56.87604522705078 56.673091888427734 39.785945892333984
H 57.80553436279297 57.0065803527832 40.24028015136719
C 56.02124786376953 57.72409439086914 39.304100036621094
C 54.50243377685547 55.97078323364258 38.66429138183594
H 53.492950439453125 55.73080062866211 38.34038543701172
C 54.85540008544922 57.35447692871094 38.588382720947266
H 54.11103057861328 58.08827209472656 38.29001998901367
C 54.91633605957031 53.55270767211914 39.2459602355957
C 55.782928466796875 52.649600982666016 39.995269775390625
C 56.984344482421875 52.120384216308594 39.74514389038086
H 57.559844970703125 52.32288360595703 38.84791564941406
C 57.23924255371094 51.0545654296875 40.69618225097656
H 58.037384033203125 50.31961441040039 40.70309829711914
C 56.243446350097656 51.03895568847656 41.61035919189453
N 55.403358459472656 52.12238311767578 41.248470306396484
H 54.53772735595703 52.38946533203125 41.69733428955078
C 55.913429260253906 50.1297721862793 42.642059326171875
H 56.666603088378906 49.35393142700195 42.7713508605957
C 54.686363220214844 49.757530212402344 43.07374572753906
C 54.48858642578125 48.5850944519043 43.76680374145508
H 55.26002502441406 47.89578628540039 44.093849182128906
C 53.109642028808594 48.415985107421875 43.928192138671875
H 52.64884948730469 47.59523391723633 44.46788787841797
C 52.489524841308594 49.56166458129883 43.36574172973633
N 53.484169006347656 50.37018966674805 42.84809112548828
C 51.07837677001953 49.87306213378906 43.274200439453125
C 50.458106994628906 50.14846420288086 42.03920364379883
C 49.26924133300781 49.6639289855957 41.52082824707031
H 48.687957763671875 48.87600326538086 41.9882698059082
C 49.2030029296875 50.12431716918945 40.18645095825195
H 48.51555633544922 49.83660125732422 39.397857666015625
C 50.29517364501953 50.94894790649414 39.8960075378418
N 50.88255310058594 51.11285400390625 41.14491653442383
H 51.668426513671875 51.73070526123047 41.29583740234375
C 50.64421844482422 51.509578704833984 38.709259033203125
H 49.92573547363281 51.165958404541016 37.9665412902832
C 51.82904815673828 52.21871566772461 38.34281921386719
C 52.33684539794922 52.76858139038086 37.144989013671875
H 51.830101013183594 52.807857513427734 36.186405181884766
C 53.616233825683594 53.26739501953125 37.34965133666992
H 54.30274963378906 53.661346435546875 36.607547760009766
C 53.785552978515625 53.10869598388672 38.70573425292969
N 52.80146026611328 52.39900207519531 39.2520637512207
C 48.72222137451172 49.324859619140625 46.882484436035156
C 48.14458465576172 49.62409591674805 45.664634704589844
H 47.062049865722656 49.55282211303711 45.59667205810547
C 48.94043731689453 49.908504486083984 44.617530822753906
H 48.35755920410156 50.38096618652344 43.831016540527344
C 50.32255554199219 49.751930236816406 44.55455780029297
C 50.141395568847656 49.37666702270508 46.94789123535156
H 50.490966796875 49.12165069580078 47.9450569152832
C 50.95072937011719 49.513797760009766 45.79839324951172
H 52.034461975097656 49.4384880065918 45.83618927001953
N 47.807220458984375 49.12546920776367 47.959068298339844
H 46.979270935058594 49.70156478881836 47.9327507019043
C 47.80070114135742 48.127159118652344 48.8514404296875
O 48.784019470214844 47.4494514465332 48.90510177612305
C 46.63677215576172 48.21061706542969 49.8619270324707
C 46.333587646484375 47.13606643676758 50.655826568603516
H 46.891639709472656 46.203834533691406 50.62276840209961
C 45.223602294921875 47.14548873901367 51.467803955078125
C 44.377525329589844 48.221343994140625 51.44344711303711
H 43.54582595825195 48.1883659362793 52.14255905151367
C 44.61958694458008 49.340415954589844 50.6067008972168
H 43.93889617919922 50.187889099121094 50.602352142333984
C 45.816307067871094 49.33942794799805 49.909873962402344
H 46.06181716918945 50.257118225097656 49.38154220581055
C 44.98759078979492 45.94821548461914 52.321388244628906
H 45.803184509277344 45.233192443847656 52.224029541015625
C 43.97188186645508 45.575504302978516 53.094444274902344
H 43.12862777709961 46.26259231567383 53.041954040527344
C 43.71016311645508 44.317073822021484 53.74803924560547
C 44.98707962036133 43.46012496948242 53.973453521728516
H 45.863555908203125 44.09202575683594 54.13145065307617
H 45.06753158569336 42.85554885864258 53.067649841308594
H 44.94465637207031 42.79171371459961 54.8359489440918
C 42.47135543823242 43.905921936035156 54.16728591918945
H 41.6673698425293 44.60590362548828 53.94466781616211
C 42.100379943847656 42.61604309082031 54.82232666015625
H 42.9446907043457 41.962242126464844 55.0358772277832
C 40.830169677734375 42.14935302734375 54.80055618286133
H 40.080753326416016 42.88774871826172 54.51935958862305
C 40.29762268066406 40.84603500366211 55.26283264160156
C 38.94540023803711 40.51025390625 54.60699462890625
H 38.14120864868164 40.731163024902344 55.31193542480469
H 38.75577926635742 41.24998474121094 53.82640838623047
H 38.97029495239258 39.495704650878906 54.20384216308594
C 40.77730178833008 40.12686538696289 56.23162078857422
H 41.719303131103516 40.41425704956055 56.69634246826172
C 40.24855422973633 38.83132553100586 56.71934509277344
H 39.272483825683594 38.55675506591797 56.322078704833984
C 40.9188346862793 38.07162094116211 57.587318420410156
H 41.92966079711914 38.363616943359375 57.86819076538086
C 40.54859924316406 36.705223083496094 57.89825439453125
H 39.659217834472656 36.34612274169922 57.382530212402344
C 41.00190353393555 35.961544036865234 58.925079345703125
C 42.1373405456543 36.35385513305664 59.8577766418457
H 42.935115814208984 35.61724853515625 59.74185562133789
H 42.4798469543457 37.387630462646484 59.77737045288086
H 41.723243713378906 36.2189826965332 60.85918045043945
C 40.45795440673828 34.638671875 59.211524963378906
H 39.55619430541992 34.493839263916016 58.61842346191406
C 40.85090255737305 33.67449188232422 60.03770065307617
H 41.81827163696289 33.81107711791992 60.518798828125
C 40.17000961303711 32.418800354003906 60.327510833740234
H 39.1597900390625 32.382442474365234 59.9224739074707
C 40.563568115234375 31.30156135559082 61.008934020996094
C 41.97011184692383 31.192514419555664 61.515846252441406
H 42.52143096923828 30.666494369506836 60.733665466308594
H 42.41581344604492 32.14153289794922 61.82109832763672
H 42.124759674072266 30.497966766357422 62.34419250488281
C 39.732337951660156 30.228763580322266 61.37685012817383
H 40.35029602050781 29.40243911743164 61.72503662109375
C 38.422855377197266 30.073381423950195 61.45948791503906
H 37.76496887207031 30.909231185913086 61.226131439208984
C 37.6282844543457 28.900304794311523 61.894771575927734
C 37.81259536743164 28.32537078857422 63.11921691894531
C 38.81187438964844 28.77145767211914 64.17681884765625
H 38.997764587402344 29.847251892089844 64.15283966064453
H 38.480403900146484 28.602741241455078 65.20352172851562
H 39.775962829589844 28.293277740478516 63.99151611328125
C 36.92153549194336 27.22493553161621 63.735267639160156
H 36.193756103515625 27.740154266357422 64.3656234741211
H 37.60084915161133 26.569616317749023 64.2844009399414
C 36.07060241699219 26.428333282470703 62.69257354736328
H 35.296302795410156 25.92505645751953 63.275360107421875
H 36.46742630004883 25.690885543823242 61.99174118041992
C 35.41687774658203 27.464265823364258 61.7102165222168
H 34.70317840576172 27.107995986938477 60.964447021484375
H 34.82880783081055 28.075952529907227 62.397586822509766
C 36.43498992919922 28.38165283203125 60.98712921142578
C 36.940425872802734 27.678321838378906 59.69520950317383
H 37.71829605102539 28.342880249023438 59.31343460083008
H 37.501190185546875 26.79489517211914 60.00756072998047
H 36.18503952026367 27.23512077331543 59.04295349121094
C 35.53053283691406 29.455066680908203 60.481781005859375
H 34.5792121887207 29.169157028198242 60.028228759765625
H 35.35966110229492 30.18065643310547 61.27976989746094
H 36.12178039550781 30.05291748046875 59.7850341796875
