207
Triad, Carotenoid-Porphyrin-C60
C 65.36332702636719 48.060367584228516 39.81535339355469
C 65.77818298339844 47.635868072509766 46.22323989868164
C 64.90021514892578 46.082645416259766 44.75836944580078
C 65.00511169433594 45.52699661254883 42.36662292480469
C 67.26891326904297 49.55315017700195 46.2019157409668
C 65.98628234863281 49.01090621948242 46.4569091796875
C 68.04334259033203 47.36503982543945 45.511146545410156
C 66.9529037475586 45.43112564086914 43.724273681640625
C 67.53694915771484 47.53141403198242 39.89781188964844
C 68.32200622558594 48.71486282348633 45.77947998046875
C 65.439453125 46.786014556884766 40.29607009887695
C 67.59310913085938 51.956241607666016 43.56609344482422
C 67.16204833984375 50.84596633911133 45.68415451049805
C 67.71361541748047 51.41264724731445 41.163414001464844
C 68.90594482421875 49.344974517822266 40.822608947753906
C 68.00468444824219 50.31123733520508 40.38319396972656
C 69.03688049316406 50.379642486572266 44.22351837158203
C 68.80445098876953 46.907108306884766 44.442626953125
C 68.25779724121094 45.9815788269043 43.55504608154297
C 69.12970733642578 47.2495231628418 41.72816848754883
C 62.51576232910156 49.39461135864258 43.4997673034668
C 63.38971710205078 50.32773971557617 44.292171478271484
C 62.90058517456055 47.96516036987305 44.052879333496094
C 63.65699768066406 48.18991470336914 45.1923942565918
C 65.797119140625 50.75181198120117 40.2074089050293
C 64.1502456665039 51.34306716918945 43.7382698059082
C 64.5433349609375 46.309818267822266 41.279083251953125
C 66.24231719970703 52.16366195678711 43.43033218383789
C 65.81733703613281 51.073856353759766 45.5297737121582
C 66.3387222290039 51.60110855102539 41.104835510253906
C 63.336669921875 46.92727279663086 43.136383056640625
C 69.20465850830078 50.53859329223633 42.86442947387695
C 69.51754760742188 49.45132064819336 42.041717529296875
C 68.44495391845703 46.11727523803711 42.1793327331543
C 69.55150604248047 47.97415542602539 43.96503829956055
C 62.734413146972656 49.65861892700195 41.96138381958008
C 63.72007751464844 50.716617584228516 41.49489212036133
C 63.3047981262207 48.4254264831543 41.246883392333984
C 64.54081726074219 50.24166488647461 40.44353103637695
C 68.60660552978516 47.99617385864258 40.661869049072266
C 63.87257385253906 49.57143020629883 45.37171936035156
C 63.536766052246094 47.17866134643555 41.77305221557617
C 64.28304290771484 48.85428237915039 40.290061950683594
C 64.23500061035156 45.896060943603516 43.50975799560547
C 66.8377685546875 49.933902740478516 39.72110366821289
C 64.2903060913086 51.57111740112305 42.399906158447266
C 65.3239517211914 51.6905403137207 44.38083267211914
C 64.58595275878906 47.2383918762207 45.55760955810547
C 65.08928680419922 49.966243743896484 46.00893783569336
C 69.66197204589844 48.187129974365234 42.584903717041016
C 65.57315063476562 52.03843307495117 42.218563079833984
C 66.62337493896484 48.5494499206543 39.519073486328125
C 66.83567810058594 46.82706832885742 45.736026763916016
C 66.24984741210938 45.84890365600586 44.8467903137207
C 66.34333801269531 45.43478775024414 42.49715042114258
C 66.79737091064453 46.48112869262695 40.40184020996094
C 68.0692138671875 51.24136734008789 44.67311096191406
C 68.29570007324219 51.5045280456543 42.4515266418457
C 67.26396179199219 45.755802154541016 41.534393310546875
C 69.15467834472656 49.076358795166016 44.793331146240234
C 61.0962028503418 49.78525924682617 43.73670196533203
N 60.42954635620117 50.10944747924805 42.73941421508789
C 61.311092376708984 50.11433029174805 41.52802658081055
H 61.2939567565918 51.15977096557617 41.20956039428711
H 60.900508880615234 49.52359390258789 40.70516586303711
C 59.03577423095703 49.10263442993164 47.507102966308594
C 59.95170974731445 50.15983963012695 47.26692581176758
H 60.189388275146484 50.77238845825195 48.132869720458984
C 60.46331787109375 50.38211441040039 45.9964485168457
H 61.104766845703125 51.2585334777832 45.951656341552734
C 60.37145233154297 49.51688003540039 44.946773529052734
C 58.89196014404297 48.222164154052734 46.44297790527344
H 58.29218292236328 47.319332122802734 46.52503967285156
C 59.54305648803711 48.41721725463867 45.20457077026367
H 59.3702278137207 47.750972747802734 44.363250732421875
C 58.413909912109375 48.808650970458984 48.82647705078125
C 58.404815673828125 49.848812103271484 49.83732986450195
C 59.43021011352539 50.52373123168945 50.52950668334961
H 60.495216369628906 50.43265151977539 50.34325408935547
C 58.7430305480957 51.39982986450195 51.38692092895508
H 59.176143646240234 52.09725570678711 52.096317291259766
C 57.38016891479492 51.223934173583984 51.35948944091797
N 57.22929763793945 50.24649429321289 50.47550582885742
H 56.31401443481445 49.89066696166992 50.23513412475586
C 56.29930114746094 51.790897369384766 52.035125732421875
H 56.688419342041016 52.56607437133789 52.69361877441406
C 55.01329803466797 51.4556999206543 52.246246337890625
C 53.966529846191406 52.40793228149414 52.270748138427734
H 54.145599365234375 53.470340728759766 52.142459869384766
C 52.85353469848633 51.61764144897461 52.252471923828125
H 51.85990905761719 51.97257614135742 51.99956130981445
C 53.270233154296875 50.19881057739258 52.35725021362305
N 54.627925872802734 50.12418746948242 52.37850570678711
C 52.46352005004883 48.94156265258789 52.429786682128906
C 52.92399978637695 47.68227005004883 52.00615692138672
C 52.46586608886719 46.393184661865234 52.37577819824219
H 51.66271209716797 46.16872787475586 53.069889068603516
C 53.16636657714844 45.454097747802734 51.71266174316406
H 52.97324752807617 44.38644027709961 51.718666076660156
C 54.262542724609375 46.049503326416016 51.030921936035156
N 54.006866455078125 47.380008697509766 51.21669387817383
H 54.515960693359375 48.1293830871582 50.76793670654297
C 55.291473388671875 45.42618942260742 50.36927795410156
H 55.26683044433594 44.3386344909668 50.3189697265625
C 56.383243560791016 46.0987434387207 49.723384857177734
C 57.4312629699707 45.42265701293945 48.95397186279297
H 57.5050163269043 44.349857330322266 48.8094482421875
C 58.32571792602539 46.4235954284668 48.59685516357422
H 59.273460388183594 46.29697036743164 48.084049224853516
C 57.76799011230469 47.58183670043945 49.02267837524414
N 56.67538070678711 47.37240982055664 49.764060974121094
C 48.60940170288086 49.16538619995117 54.48636245727539
C 48.96086502075195 48.090702056884766 53.695858001708984
H 48.303977966308594 47.22871017456055 53.611961364746094
C 50.09465408325195 48.15188980102539 52.87081527709961
H 50.31554412841797 47.468265533447266 52.05507278442383
C 51.09234619140625 49.14088821411133 53.09673309326172
C 49.4975700378418 50.21625900268555 54.63296890258789
H 49.2711181640625 51.07552719116211 55.259029388427734
C 50.798824310302734 50.212947845458984 53.99435043334961
H 51.57451629638672 50.94694137573242 54.19715881347656
N 47.385318756103516 49.19119644165039 55.258243560791016
H 47.42333984375 49.683109283447266 56.138389587402344
C 46.2125244140625 48.529056549072266 55.0244026184082
O 45.98073959350586 47.88871383666992 54.013999938964844
C 45.0902214050293 48.82817459106445 55.997222900390625
C 43.84650421142578 49.106075286865234 55.42157745361328
H 43.65653610229492 49.02748489379883 54.35419464111328
C 42.736053466796875 49.48574447631836 56.11745834350586
C 42.842384338378906 49.60531234741211 57.4548454284668
H 42.029205322265625 49.91683578491211 58.10543441772461
C 44.06664276123047 49.45060348510742 58.09232711791992
H 44.11564254760742 49.66556167602539 59.156734466552734
C 45.23237228393555 49.16299057006836 57.34640884399414
H 46.21701431274414 49.058292388916016 57.79484939575195
C 41.48916244506836 49.75535202026367 55.3946533203125
H 41.59130096435547 49.65598678588867 54.31501770019531
C 40.186344146728516 50.08243179321289 55.72317886352539
H 39.98501205444336 50.26176834106445 56.77827453613281
C 38.9691162109375 50.10471725463867 54.87297439575195
C 39.1572380065918 50.29848861694336 53.40644073486328
H 39.13100051879883 49.36198043823242 52.84542465209961
H 40.1019172668457 50.81630325317383 53.22780227661133
H 38.419960021972656 50.92690658569336 52.902488708496094
C 37.78963088989258 50.02931594848633 55.419193267822266
H 37.751407623291016 50.0439338684082 56.507423400878906
C 36.482208251953125 49.835811614990234 54.74777603149414
H 36.47654724121094 49.57993698120117 53.68927764892578
C 35.34934616088867 49.66733932495117 55.43688201904297
H 35.33150863647461 49.87936019897461 56.50490188598633
C 34.05202102661133 49.29196548461914 54.93738555908203
C 33.12744903564453 48.79375076293945 55.90267562866211
H 32.97248458862305 49.64376449584961 56.570457458496094
H 32.19371032714844 48.35636520385742 55.543113708496094
H 33.63461685180664 48.01725387573242 56.4791259765625
C 33.60247039794922 49.60273361206055 53.674537658691406
H 34.3741569519043 49.9411735534668 52.98469543457031
C 32.29871368408203 49.22819900512695 53.066287994384766
H 31.524873733520508 48.74979782104492 53.66480255126953
C 31.936145782470703 49.61019515991211 51.81550598144531
H 32.58869552612305 50.29745101928711 51.279056549072266
C 30.631139755249023 49.220699310302734 51.28023147583008
H 30.148229598999023 48.407840728759766 51.82058334350586
C 30.01584815979004 49.5890998840332 50.128604888916016
C 30.63442039489746 50.54814529418945 49.196685791015625
H 30.27098274230957 50.488895416259766 48.168643951416016
H 30.55702781677246 51.52302169799805 49.68258285522461
H 31.71120834350586 50.38068771362305 49.12630081176758
C 28.730419158935547 49.00503158569336 49.665435791015625
H 28.233234405517578 49.5233268737793 48.84684371948242
C 28.137014389038086 47.87043380737305 50.13053894042969
H 28.542896270751953 47.323551177978516 50.980308532714844
C 26.930389404296875 47.38359451293945 49.55591583251953
H 26.675086975097656 47.874027252197266 48.617713928222656
C 26.025693893432617 46.62582778930664 50.1555290222168
C 26.234455108642578 46.024967193603516 51.527587890625
H 27.033496856689453 45.28140640258789 51.56097412109375
H 26.528034210205078 46.74678421020508 52.2926025390625
H 25.331043243408203 45.52797317504883 51.887184143066406
C 24.696386337280273 46.28190994262695 49.64237594604492
H 24.4394588470459 45.28315353393555 49.99223327636719
C 24.01327896118164 47.014949798583984 48.77341842651367
H 24.451520919799805 47.99808883666992 48.608158111572266
C 22.65304946899414 46.77592849731445 48.15127182006836
C 22.201290130615234 45.500484466552734 47.80278015136719
C 23.042062759399414 44.247867584228516 48.01091384887695
H 22.98818588256836 43.77901840209961 48.99566650390625
H 22.688968658447266 43.49582290649414 47.3022346496582
H 24.083477020263672 44.49905014038086 47.799190521240234
C 20.822708129882812 45.24367904663086 47.13782501220703
H 20.176427841186523 44.7463264465332 47.86406707763672
H 20.991682052612305 44.55399703979492 46.30821228027344
C 20.288497924804688 46.56288528442383 46.58607482910156
H 19.21487045288086 46.41917037963867 46.447723388671875
H 20.693675994873047 46.90958023071289 45.63313674926758
C 20.331405639648438 47.69123458862305 47.68928909301758
H 19.761856079101562 48.61264419555664 47.5511474609375
H 19.852554321289062 47.36366653442383 48.614418029785156
C 21.825653076171875 48.0756721496582 47.963008880615234
C 22.38596534729004 48.97420883178711 46.93962097167969
H 22.433391571044922 48.511966705322266 45.951416015625
H 21.722225189208984 49.83928298950195 46.87990188598633
H 23.275726318359375 49.49271011352539 47.3028678894043
C 21.685407638549805 48.8948860168457 49.23528289794922
H 21.10675621032715 48.42775344848633 50.034912109375
H 22.68679428100586 49.10996627807617 49.61400604248047
H 21.194793701171875 49.861392974853516 49.102561950683594
