207
Triad, Carotenoid-Porphyrin-C60
C 58.9234619140625 51.90862274169922 35.56764221191406
C 54.779685974121094 53.089237213134766 40.48879623413086
C 55.63111877441406 51.15467071533203 39.70853042602539
C 57.48285675048828 50.215118408203125 38.43178939819336
C 55.35418701171875 55.46046447753906 40.29457092285156
C 54.437217712402344 54.372764587402344 40.06330490112305
C 56.87989044189453 53.912384033203125 41.38102722167969
C 57.90911102294922 51.44923400878906 40.47843551635742
C 60.385108947753906 52.763057708740234 37.115928649902344
C 56.585479736328125 55.190677642822266 40.928009033203125
C 58.938072204589844 51.05712890625 36.63907241821289
C 56.859283447265625 57.13108825683594 37.414913177490234
C 55.36997985839844 56.314144134521484 39.20705795288086
C 58.723114013671875 56.25029754638672 36.123104095458984
C 60.33294677734375 55.129634857177734 37.44878387451172
C 59.74407958984375 55.347877502441406 36.257389068603516
C 57.727561950683594 56.65346908569336 39.40711975097656
C 58.24956512451172 53.73512268066406 41.136287689208984
C 58.781333923339844 52.525245666503906 40.721622467041016
C 60.34925079345703 53.72184371948242 39.26137161254883
C 54.113983154296875 52.29264831542969 35.83298110961914
C 53.92486572265625 53.68073654174805 36.522281646728516
C 54.458839416503906 51.50716018676758 37.17118453979492
C 54.06092834472656 52.273353576660156 38.297210693359375
C 58.26332092285156 54.49740219116211 34.80586624145508
C 54.544334411621094 54.824554443359375 36.08529281616211
C 57.772369384765625 50.387691497802734 37.07151412963867
C 55.974571228027344 56.62464141845703 36.45490264892578
C 54.52897644042969 55.775882720947266 38.25468444824219
C 57.808380126953125 55.71134567260742 35.200645446777344
C 55.564849853515625 50.7165641784668 37.33816909790039
C 58.742820739746094 56.712364196777344 38.42507553100586
C 59.7982177734375 55.781620025634766 38.59933853149414
C 59.83271789550781 52.52218246459961 39.75691604614258
C 58.76536560058594 54.9212646484375 40.621315002441406
C 55.328369140625 52.28580856323242 34.804439544677734
C 56.02015686035156 53.63563537597656 34.56557846069336
C 56.57262420654297 51.493316650390625 35.2513427734375
C 57.39593505859375 53.47462844848633 34.50261688232422
C 60.63690185546875 53.83613204956055 37.92118453979492
C 53.64689636230469 53.58403778076172 37.88593673706055
C 56.58677673339844 50.63689422607422 36.3978271484375
C 57.72489929199219 52.214324951171875 34.902000427246094
C 56.119606018066406 50.45404052734375 38.57625198364258
C 59.512428283691406 54.26741409301758 35.434444427490234
C 55.53263854980469 54.81538391113281 35.109195709228516
C 54.83424377441406 55.932037353515625 36.887611389160156
C 54.52179718017578 51.96830368041992 39.6187629699707
C 53.920997619628906 54.606773376464844 38.784271240234375
C 59.818328857421875 54.89266586303711 39.67281723022461
C 56.42958068847656 55.9005241394043 35.370880126953125
C 59.82722473144531 52.98709487915039 35.856929779052734
C 56.01206970214844 52.873653411865234 41.09284973144531
C 56.54075622558594 51.65800094604492 40.60406494140625
C 58.40533447265625 50.76774597167969 39.353729248046875
C 59.85041809082031 51.55337905883789 37.57449722290039
C 56.54522705078125 56.96024703979492 38.773014068603516
C 58.20564270019531 56.98171615600586 37.17893981933594
C 59.541053771972656 51.41035079956055 38.926578521728516
C 57.72119140625 55.79536819458008 40.47245788574219
C 52.931861877441406 51.77522659301758 35.02180862426758
N 53.231170654296875 51.43735122680664 33.86788558959961
C 54.63835144042969 51.675968170166016 33.5190315246582
H 54.80448913574219 52.25899887084961 32.60956954956055
H 55.04429626464844 50.67219543457031 33.36968231201172
C 48.87482452392578 51.23515701293945 36.65298080444336
C 49.58656311035156 50.21762466430664 36.04094314575195
H 49.219573974609375 49.195396423339844 36.08491516113281
C 50.87921905517578 50.435035705566406 35.51401138305664
H 51.306793212890625 49.638710021972656 34.91017532348633
C 51.537147521972656 51.65495681762695 35.574466705322266
C 49.5345458984375 52.45155334472656 36.65357208251953
H 49.015655517578125 53.27093505859375 37.144432067871094
C 50.823158264160156 52.70802688598633 36.23561477661133
H 51.182159423828125 53.72616195678711 36.36246109008789
C 47.56297302246094 51.067012786865234 37.28160858154297
C 47.06861114501953 49.66698455810547 37.318023681640625
C 46.65512466430664 48.727664947509766 36.38467788696289
H 46.490230560302734 48.94332504272461 35.334190368652344
C 46.14997482299805 47.61684036254883 37.090667724609375
H 45.52168273925781 46.83146667480469 36.68364715576172
C 46.38002395629883 47.790184020996094 38.412811279296875
N 47.10118865966797 48.949790954589844 38.53559112548828
H 47.366981506347656 49.375579833984375 39.41318893432617
C 45.90938186645508 46.9841423034668 39.51497268676758
H 45.50338363647461 45.986412048339844 39.35487365722656
C 45.911277770996094 47.34248352050781 40.86598205566406
C 45.46458435058594 46.37977981567383 41.864593505859375
H 45.24127197265625 45.339542388916016 41.65184020996094
C 45.35898208618164 47.190975189208984 42.99335479736328
H 45.01496505737305 46.979156494140625 44.000335693359375
C 45.739566802978516 48.50547790527344 42.629737854003906
N 46.09431457519531 48.589569091796875 41.31136703491211
C 45.84670639038086 49.696189880371094 43.50982666015625
C 45.26845169067383 50.856903076171875 43.16477966308594
C 44.473758697509766 51.820858001708984 43.82648849487305
H 44.17012023925781 51.699195861816406 44.86100769042969
C 44.278358459472656 52.897769927978516 43.03982925415039
H 43.80948257446289 53.84729766845703 43.27599334716797
C 44.87907791137695 52.703208923339844 41.75916290283203
N 45.30712890625 51.40497970581055 41.89332962036133
H 45.80076599121094 50.965187072753906 41.12845993041992
C 44.94573211669922 53.51229476928711 40.630069732666016
H 44.590484619140625 54.540855407714844 40.672428131103516
C 45.60597610473633 53.257415771484375 39.310428619384766
C 45.71044158935547 54.01907730102539 38.1653938293457
H 45.29697036743164 55.00479507446289 37.979305267333984
C 46.452720642089844 53.219120025634766 37.28709030151367
H 46.640071868896484 53.36301040649414 36.22812271118164
C 46.85941696166992 52.07212448120117 37.912818908691406
N 46.28612518310547 52.10544204711914 39.087379455566406
C 48.04234313964844 49.342288970947266 47.186763763427734
C 47.528282165527344 50.62375259399414 46.82014083862305
H 47.628936767578125 51.404930114746094 47.569278717041016
C 46.7657585144043 50.76512908935547 45.65459442138672
H 46.32606506347656 51.733848571777344 45.43138885498047
C 46.62382125854492 49.66280746459961 44.73991012573242
C 47.95587158203125 48.27021789550781 46.25041198730469
H 48.40412139892578 47.301761627197266 46.45713424682617
C 47.26268768310547 48.44454574584961 45.01029968261719
H 47.35810852050781 47.65730667114258 44.266849517822266
N 48.82141876220703 49.20417404174805 48.408355712890625
H 49.40558624267578 50.010467529296875 48.571815490722656
C 48.54887390136719 48.437713623046875 49.50507354736328
O 47.622093200683594 47.68125915527344 49.57807540893555
C 49.48237609863281 48.61811065673828 50.633174896240234
C 48.921714782714844 48.57522201538086 51.93050003051758
H 47.90411376953125 48.197975158691406 51.86920166015625
C 49.762474060058594 48.614646911621094 53.09648895263672
C 51.109619140625 48.77450942993164 52.903629302978516
H 51.714561462402344 48.536895751953125 53.77492141723633
C 51.71253967285156 48.90237045288086 51.68927001953125
H 52.777931213378906 49.064884185791016 51.547454833984375
C 50.87931823730469 48.855873107910156 50.51191711425781
H 51.26622009277344 48.979820251464844 49.503692626953125
C 49.08575439453125 48.42210006713867 54.416175842285156
H 48.01396942138672 48.293033599853516 54.27287673950195
C 49.62688446044922 48.31101989746094 55.6750373840332
H 50.68816375732422 48.49816131591797 55.831844329833984
C 48.84349060058594 47.94839096069336 56.8608283996582
C 49.548973083496094 48.34255599975586 58.11867141723633
H 48.79975891113281 48.43782043457031 58.907379150390625
H 50.02794647216797 49.308258056640625 57.94412612915039
H 50.29845428466797 47.57645034790039 58.327964782714844
C 47.63755798339844 47.354400634765625 56.89539337158203
H 47.118141174316406 47.21095275878906 55.949058532714844
C 46.881736755371094 46.91981887817383 58.059051513671875
H 47.447731018066406 46.58428192138672 58.92679977416992
C 45.55390930175781 46.67655563354492 58.071998596191406
H 44.9658317565918 46.81490707397461 57.16593933105469
C 44.79451370239258 46.05894470214844 59.11842346191406
C 43.36423873901367 45.8116455078125 58.795616149902344
H 42.63298034667969 46.4899787902832 59.24013137817383
H 43.195796966552734 45.87800216674805 57.718727111816406
H 43.194366455078125 44.750308990478516 58.98841094970703
C 45.23857116699219 45.74540710449219 60.32796096801758
H 46.26570510864258 45.88008117675781 60.663795471191406
C 44.48081588745117 45.25263977050781 61.43864822387695
H 43.396209716796875 45.3303108215332 61.37929153442383
C 45.031349182128906 44.5634880065918 62.44036102294922
H 46.10969161987305 44.425071716308594 62.503173828125
C 44.31010818481445 43.900203704833984 63.50727081298828
H 43.227134704589844 43.99180221557617 63.57581329345703
C 44.81218338012695 43.240142822265625 64.59394836425781
C 46.224605560302734 43.14907455444336 65.04328918457031
H 46.543006896972656 43.97132110595703 65.68748474121094
H 46.354278564453125 42.19969940185547 65.56707000732422
H 46.877052307128906 43.1927490234375 64.1687240600586
C 43.93199157714844 42.57209777832031 65.57329559326172
H 44.37189483642578 42.22349166870117 66.50650024414062
C 42.61817932128906 42.4023551940918 65.5285415649414
H 42.11765670776367 42.74428176879883 64.62384033203125
C 41.77874755859375 41.84080505371094 66.59168243408203
H 42.20319366455078 41.1723518371582 67.33930969238281
C 40.481292724609375 42.103031158447266 66.81805419921875
C 39.75941467285156 43.095603942871094 65.9444808959961
H 40.185264587402344 43.25647735595703 64.95188903808594
H 38.70729064941406 42.86231231689453 65.76818084716797
H 39.87455368041992 44.09664535522461 66.36534118652344
C 39.64952087402344 41.44722366333008 67.86478424072266
H 38.64516830444336 41.86329650878906 67.80086517333984
C 39.91188049316406 40.4953727722168 68.81130981445312
H 40.8775634765625 40.02198028564453 68.9823989868164
C 38.92460250854492 40.120582580566406 69.83740997314453
C 38.44873046875 40.94050216674805 70.83983612060547
C 38.72765350341797 42.417083740234375 70.95790100097656
H 39.5430908203125 42.572532653808594 71.6673812866211
H 39.03411102294922 42.79640197753906 69.9808349609375
H 37.874019622802734 42.97909927368164 71.34249114990234
C 37.52092742919922 40.470603942871094 71.91844940185547
H 36.94778060913086 41.248008728027344 72.42797088623047
H 38.2121467590332 40.00862121582031 72.6264419555664
C 36.536197662353516 39.26829147338867 71.44124603271484
H 35.863094329833984 39.503265380859375 70.61408233642578
H 35.855960845947266 38.94477462768555 72.23186492919922
C 37.51985549926758 38.1624870300293 70.82087707519531
H 38.17792510986328 37.886985778808594 71.64762115478516
H 37.00241470336914 37.22097396850586 70.62523651123047
C 38.34600067138672 38.66936492919922 69.68456268310547
C 39.30077362060547 37.55596160888672 69.36847686767578
H 39.84313201904297 37.6900520324707 68.43022155761719
H 40.04366683959961 37.45833969116211 70.16285705566406
H 38.810523986816406 36.59486389160156 69.19992065429688
C 37.42667007446289 38.57231140136719 68.45356750488281
H 36.927188873291016 37.60124206542969 68.45062255859375
H 36.69226837158203 39.37664031982422 68.53215026855469
H 37.98593521118164 38.66060256958008 67.51982116699219
