207
Triad, Carotenoid-Porphyrin-C60
C 58.36560821533203 47.6142463684082 61.34709930419922
C 53.040435791015625 45.55849075317383 64.16966247558594
C 54.41328430175781 44.48257827758789 62.76671600341797
C 56.65375518798828 44.54573059082031 61.89616394042969
C 53.060447692871094 47.393287658691406 65.68020629882812
C 52.52703857421875 46.7913932800293 64.56962585449219
C 54.532752990722656 45.517852783203125 66.1142807006836
C 56.256439208984375 44.291259765625 64.26221466064453
C 59.20800018310547 47.29165267944336 63.437652587890625
C 54.05216979980469 46.768272399902344 66.4532241821289
C 58.32537841796875 46.23916244506836 61.61204528808594
C 54.778221130371094 50.44166946411133 65.05860900878906
C 53.08759307861328 48.78318786621094 65.4551773071289
C 57.05083465576172 50.57322311401367 64.26447296142578
C 58.553314208984375 48.96651840209961 65.14523315429688
C 58.28794860839844 49.952392578125 64.19544982910156
C 55.226402282714844 48.90673828125 66.6932144165039
C 55.937538146972656 45.53396987915039 66.32286834716797
C 56.765769958496094 44.861961364746094 65.40525817871094
C 58.31346893310547 46.68808364868164 65.62641906738281
C 53.751319885253906 47.736637115478516 60.22581481933594
C 53.07360076904297 48.4227180480957 61.36601257324219
C 53.885589599609375 46.285926818847656 60.746788024902344
C 53.03447723388672 46.24517059326172 61.852935791015625
C 57.44305419921875 50.12741470336914 62.038902282714844
C 53.49427032470703 49.62822723388672 61.8682861328125
C 57.293609619140625 45.494075775146484 61.095603942871094
C 54.29658508300781 50.61884689331055 63.758766174316406
C 52.69000244140625 48.98207092285156 64.10167694091797
C 56.56298065185547 50.77031707763672 62.9755859375
C 55.08001708984375 45.557777404785156 60.71472930908203
C 56.46674346923828 49.45470428466797 66.3577651977539
C 57.639686584472656 48.72032928466797 66.2456283569336
C 57.995391845703125 45.45682144165039 65.08926391601562
C 56.27222442626953 46.77598190307617 66.80338287353516
C 55.14667510986328 48.37094497680664 59.77839660644531
C 55.54247283935547 49.57463836669922 60.590065002441406
C 56.3873291015625 47.48887252807617 60.05572509765625
C 56.91998291015625 49.48442459106445 60.92365264892578
C 58.964759826660156 47.62103271484375 64.75313568115234
C 52.51030731201172 47.46794509887695 62.19945526123047
C 56.29895782470703 46.12651824951172 60.39550018310547
C 57.368499755859375 48.241615295410156 60.579925537109375
C 55.313804626464844 44.5885124206543 61.67365264892578
C 58.444236755371094 49.58091735839844 62.80004119873047
C 54.712982177734375 50.21953582763672 61.529022216796875
C 53.28596496582031 49.898014068603516 63.247406005859375
C 53.296844482421875 45.31875991821289 62.81755065917969
C 52.257537841796875 47.79779815673828 63.56720733642578
C 57.49983215332031 47.33467102050781 66.48320007324219
C 55.21710205078125 50.83152389526367 62.70515441894531
C 58.915016174316406 48.27745819091797 62.49176025390625
C 54.01506042480469 44.925804138183594 64.94131469726562
C 54.88768768310547 44.28116226196289 64.07298278808594
C 57.08213806152344 44.3631591796875 63.248268127441406
C 58.78650665283203 46.06871795654297 62.87220001220703
C 54.20964050292969 49.508052825927734 65.94352722167969
C 56.179229736328125 50.358741760253906 65.36617279052734
C 58.1710205078125 45.15781784057617 63.71813201904297
C 55.14720916748047 47.55963134765625 66.90205383300781
C 52.973419189453125 47.84037780761719 58.94224548339844
N 53.569557189941406 48.254737854003906 57.90638732910156
C 54.926841735839844 48.6529655456543 58.297935485839844
H 55.10022735595703 49.7196044921875 58.134002685546875
H 55.681663513183594 48.251731872558594 57.61682891845703
C 49.319725036621094 45.58769607543945 58.57640075683594
C 49.35100555419922 46.967979431152344 59.00982666015625
H 48.44110870361328 47.53525161743164 59.18833923339844
C 50.52799987792969 47.65847396850586 59.19683837890625
H 50.48710632324219 48.6590576171875 59.619598388671875
C 51.73040771484375 47.08426284790039 58.82642364501953
C 50.586090087890625 45.016963958740234 58.31000518798828
H 50.59648132324219 44.03281784057617 57.84857177734375
C 51.76782989501953 45.75874328613281 58.439735412597656
H 52.75177001953125 45.42240905761719 58.123023986816406
C 48.043182373046875 44.77017593383789 58.45896911621094
C 46.74821472167969 45.421363830566406 58.70021057128906
C 46.300514221191406 46.17312240600586 59.77159881591797
H 46.92498779296875 46.43928527832031 60.618011474609375
C 44.96061706542969 46.465248107910156 59.52430725097656
H 44.337318420410156 47.08730697631836 60.15815734863281
C 44.62754821777344 46.048095703125 58.288673400878906
N 45.680091857910156 45.3416748046875 57.880027770996094
H 45.70611572265625 44.737369537353516 57.06993103027344
C 43.530906677246094 46.30900573730469 57.337371826171875
H 42.866912841796875 47.10345458984375 57.67485046386719
C 43.204673767089844 45.738304138183594 56.191688537597656
C 41.867462158203125 45.70186996459961 55.75019836425781
H 41.092002868652344 46.31918716430664 56.191566467285156
C 41.81251525878906 44.85258865356445 54.638404846191406
H 41.00291442871094 44.66098403930664 53.941932678222656
C 43.15251159667969 44.45710754394531 54.41162109375
N 44.005760192871094 44.876197814941406 55.41780090332031
C 43.57928466796875 43.46831512451172 53.400787353515625
C 44.353782653808594 42.36442565917969 53.751564025878906
C 44.22869873046875 40.96891403198242 53.469139099121094
H 43.537353515625 40.47768020629883 52.79241180419922
C 44.992828369140625 40.2133674621582 54.32185363769531
H 45.07018280029297 39.14695739746094 54.50627899169922
C 45.7025146484375 41.01853561401367 55.243247985839844
N 45.27459716796875 42.27701950073242 54.86194610595703
H 45.725547790527344 43.11124801635742 55.21240997314453
C 46.57543182373047 40.71986389160156 56.25520324707031
H 46.823158264160156 39.66400909423828 56.35382080078125
C 47.316444396972656 41.58453369140625 57.095977783203125
C 48.267677307128906 41.20388412475586 58.132911682128906
H 48.521690368652344 40.17169189453125 58.35035705566406
C 48.683837890625 42.406314849853516 58.72492980957031
H 49.188720703125 42.610816955566406 59.66327667236328
C 48.10851287841797 43.46818542480469 58.00775146484375
N 47.390830993652344 42.942596435546875 57.038490295410156
C 42.781829833984375 44.27470779418945 49.25072479248047
C 43.397857666015625 43.058650970458984 49.62770080566406
H 43.74278259277344 42.395198822021484 48.83875274658203
C 43.81422424316406 42.8717041015625 50.93614959716797
H 44.36842346191406 41.99065017700195 51.249488830566406
C 43.37629699707031 43.751583099365234 51.94916534423828
C 42.463401794433594 45.183834075927734 50.16180419921875
H 41.800079345703125 45.97552490234375 49.822975158691406
C 42.65983581542969 44.89435958862305 51.520721435546875
H 42.299278259277344 45.6087646484375 52.256385803222656
N 42.388038635253906 44.42420196533203 47.895782470703125
H 41.824134826660156 43.65989303588867 47.55530548095703
C 42.97425079345703 45.27504348754883 47.031707763671875
O 43.621482849121094 46.20600891113281 47.41670227050781
C 42.70494842529297 45.04370880126953 45.568084716796875
C 42.809165954589844 46.12982940673828 44.731170654296875
H 43.056175231933594 47.13396453857422 45.06623840332031
C 42.502532958984375 46.02278137207031 43.36177062988281
C 42.20325469970703 44.75248718261719 42.785888671875
H 42.107933044433594 44.61940383911133 41.711280822753906
C 42.18950653076172 43.60601043701172 43.582298278808594
H 41.88505554199219 42.66358184814453 43.13429260253906
C 42.42646789550781 43.76387023925781 44.975440979003906
H 42.301513671875 42.90052795410156 45.62397766113281
C 42.574806213378906 47.2275505065918 42.481651306152344
H 42.92012023925781 48.15703201293945 42.93193054199219
C 42.27378845214844 47.35409164428711 41.134483337402344
H 41.84632873535156 46.51980209350586 40.58025360107422
C 42.23296356201172 48.54751205444336 40.30634307861328
C 42.54443359375 49.84016418457031 41.03205108642578
H 41.86811065673828 49.77850341796875 41.887184143066406
H 42.288978576660156 50.7507209777832 40.48606872558594
H 43.56645202636719 49.96284866333008 41.39656066894531
C 42.052093505859375 48.5367317199707 38.97029113769531
H 41.80425262451172 47.553409576416016 38.57332992553711
C 42.10430908203125 49.62641143798828 37.986698150634766
H 41.72633361816406 50.60609436035156 38.27528762817383
C 42.55604553222656 49.465843200683594 36.777957916259766
H 42.882957458496094 48.472145080566406 36.47527313232422
C 42.64124298095703 50.415470123291016 35.67720413208008
C 41.67425537109375 51.5903205871582 35.62705612182617
H 41.20500946044922 51.58467102050781 34.641029357910156
H 40.84324645996094 51.551605224609375 36.334434509277344
H 42.12450408935547 52.56959915161133 35.80242919921875
C 43.62970733642578 50.29327392578125 34.82838439941406
H 44.24547576904297 49.407875061035156 34.97944641113281
C 43.980072021484375 51.14899444580078 33.64039611816406
H 43.22212219238281 51.8915901184082 33.39546203613281
C 45.04644775390625 50.976741790771484 32.838470458984375
H 45.726280212402344 50.151981353759766 33.04711151123047
C 45.34046936035156 51.8480339050293 31.700510025024414
H 44.922462463378906 52.85357666015625 31.70943260192871
C 46.19493103027344 51.48904037475586 30.679536819458008
C 46.79151153564453 50.16813659667969 30.544950485229492
H 46.09950256347656 49.448368072509766 30.987119674682617
H 47.07276916503906 49.86492919921875 29.534292221069336
H 47.64955139160156 50.17969512939453 31.220304489135742
C 46.648780822753906 52.30217742919922 29.58260154724121
H 47.18572235107422 51.77541732788086 28.79511070251465
C 46.494407653808594 53.66170120239258 29.512269973754883
H 46.061126708984375 54.119346618652344 30.400381088256836
C 46.87261962890625 54.75498962402344 28.603666305541992
H 46.98167419433594 54.37883758544922 27.587526321411133
C 47.145233154296875 56.00402069091797 28.80045509338379
C 46.98631286621094 56.62699508666992 30.142454147338867
H 47.536155700683594 57.57028579711914 30.124074935913086
H 45.958168029785156 56.88615036010742 30.40366554260254
H 47.42253875732422 56.10624313354492 30.9974308013916
C 47.506805419921875 56.94706726074219 27.707509994506836
H 47.62120056152344 57.988136291503906 28.0058650970459
C 47.63213348388672 56.800148010253906 26.39973258972168
H 47.443504333496094 55.804466247558594 26.001035690307617
C 47.939292907714844 57.88029098510742 25.38974952697754
C 47.25877380371094 59.050113677978516 25.301485061645508
C 46.04902648925781 59.53968811035156 26.040258407592773
H 45.34062194824219 60.002197265625 25.349821090698242
H 45.55699157714844 58.75468826293945 26.61830711364746
H 46.30598449707031 60.26711654663086 26.813100814819336
C 47.542572021484375 60.00613021850586 24.188867568969727
H 47.161460876464844 60.966373443603516 24.542631149291992
H 46.814239501953125 59.766597747802734 23.411287307739258
C 49.017425537109375 59.967308044433594 23.731462478637695
H 49.62146759033203 60.41707992553711 24.5222225189209
H 49.10905456542969 60.66006851196289 22.892324447631836
C 49.391380310058594 58.507476806640625 23.308134078979492
H 48.854042053222656 58.31846618652344 22.3764591217041
H 50.46150207519531 58.43205261230469 23.104108810424805
C 49.08808898925781 57.50974655151367 24.41246223449707
C 48.89442443847656 56.231651306152344 23.617433547973633
H 47.855865478515625 56.13824462890625 23.293203353881836
H 49.61933135986328 56.126014709472656 22.80760383605957
H 48.912628173828125 55.400634765625 24.325632095336914
C 50.435302734375 57.2515754699707 25.098695755004883
H 50.868507385253906 58.21494674682617 25.37568473815918
H 50.25126647949219 56.79695510864258 26.07436180114746
H 51.120025634765625 56.65004348754883 24.497217178344727
