207
Triad, Carotenoid-Porphyrin-C60
C 59.740943908691406 49.63584899902344 64.19469451904297
C 57.38631820678711 46.853858947753906 58.89775085449219
C 59.53780746459961 47.563377380371094 59.353187561035156
C 60.777854919433594 48.11162567138672 61.32672119140625
C 55.4238395690918 46.234954833984375 59.930763244628906
C 56.04276657104492 47.06024169921875 59.062522888183594
C 57.40793228149414 44.97393798828125 60.302085876464844
C 59.98405075073242 45.842933654785156 60.95177459716797
C 59.513973236083984 47.5035514831543 64.93743133544922
C 56.060672760009766 45.209625244140625 60.59894561767578
C 60.6212043762207 48.87213134765625 63.543556213378906
C 54.14105224609375 47.88701629638672 62.906982421875
C 54.500667572021484 47.00183868408203 60.6964111328125
C 55.54709243774414 48.41230010986328 64.8999252319336
C 57.21861267089844 46.710174560546875 65.30616760253906
C 56.772701263427734 48.016265869140625 65.50038146972656
C 54.947505950927734 45.78826904296875 62.673431396484375
C 58.01519012451172 44.53084182739258 61.51835632324219
C 59.32795715332031 44.97783279418945 61.86560821533203
C 58.62128448486328 45.44144821166992 64.08810424804688
C 57.693336486816406 51.35591506958008 60.17561340332031
C 56.392330169677734 50.6230583190918 59.98323059082031
C 58.65873718261719 50.23918914794922 59.601356506347656
C 57.8140754699707 49.25364685058594 58.96680450439453
C 57.002647399902344 50.133609771728516 64.76893615722656
C 55.41897964477539 50.57756423950195 60.99992370605469
C 60.74378967285156 49.122379302978516 62.21495056152344
C 54.36552810668945 49.2115592956543 62.456085205078125
C 54.60039520263672 48.38840103149414 60.24437713623047
C 55.7153205871582 49.69508743286133 64.40583801269531
C 59.80545425415039 49.80641555786133 60.281898498535156
C 55.24468231201172 46.15227508544922 63.99470520019531
C 56.51042938232422 45.7750129699707 64.57413482666016
C 59.62882614135742 45.43538284301758 63.13806915283203
C 57.03411102294922 44.544979095458984 62.507362365722656
C 58.14377975463867 51.766868591308594 61.611907958984375
C 57.04430389404297 51.47068786621094 62.669776916503906
C 59.282962799072266 51.05063247680664 62.26783752441406
C 57.6306266784668 50.93791198730469 63.85938262939453
C 58.57451629638672 46.48447036743164 65.03759765625
C 56.497615814208984 49.491111755371094 59.164215087890625
C 60.12239074707031 50.22632598876953 61.584510803222656
C 59.00907897949219 50.68198013305664 63.581634521484375
C 60.187557220458984 48.53279113769531 60.12047576904297
C 57.6812744140625 49.074832916259766 65.39910125732422
C 55.76226806640625 51.014625549316406 62.30610656738281
C 54.53105926513672 49.497352600097656 61.114532470703125
C 58.27044677734375 47.94878387451172 58.82588195800781
C 55.5577392578125 48.37901306152344 59.204490661621094
C 57.34941864013672 44.98292541503906 63.83070373535156
C 55.12244415283203 50.144012451171875 63.175743103027344
C 59.024295806884766 48.807804107666016 65.08104705810547
C 58.12690353393555 45.814369201660156 59.43889617919922
C 59.402774810791016 46.284271240234375 59.790069580078125
C 60.755462646484375 46.78510284423828 61.70856475830078
C 60.542659759521484 47.567543029785156 64.002197265625
C 54.25266647338867 46.78144073486328 62.021240234375
C 54.788848876953125 47.49808120727539 64.1020278930664
C 60.596229553222656 46.52592849731445 63.064109802246094
C 55.83478546142578 45.00185012817383 61.97639465332031
C 57.703311920166016 52.648738861083984 59.373756408691406
N 58.14368438720703 53.64553451538086 60.048370361328125
C 58.38640594482422 53.283573150634766 61.44647216796875
H 57.85619354248047 54.01850509643555 62.057533264160156
H 59.45639419555664 53.453670501708984 61.590843200683594
C 56.18836212158203 53.29762268066406 55.4542236328125
C 57.28133010864258 52.43080520629883 55.64863586425781
H 57.78136444091797 52.014671325683594 54.777793884277344
C 57.82344436645508 52.18512725830078 56.93681335449219
H 58.572898864746094 51.411293029785156 57.081939697265625
C 57.20469284057617 52.802555084228516 58.00267791748047
C 55.618690490722656 53.912254333496094 56.55939483642578
H 54.73862838745117 54.54866027832031 56.51415252685547
C 56.08589553833008 53.66621017456055 57.81885528564453
H 55.692359924316406 54.235652923583984 58.65696716308594
C 55.545860290527344 53.49355697631836 54.10820770263672
C 56.209388732910156 52.77091598510742 53.023338317871094
C 57.44919967651367 52.824764251708984 52.40345001220703
H 58.29472732543945 53.437469482421875 52.6982421875
C 57.496944427490234 51.78721237182617 51.36897277832031
H 58.324493408203125 51.47502136230469 50.740543365478516
C 56.27470779418945 51.17940139770508 51.301483154296875
N 55.446773529052734 51.97869110107422 52.115509033203125
H 54.455684661865234 51.79075241088867 52.182945251464844
C 55.65665817260742 50.12875747680664 50.55844497680664
H 56.39696502685547 49.579566955566406 49.97856521606445
C 54.406620025634766 49.644813537597656 50.68946075439453
C 54.157737731933594 48.253028869628906 51.04676055908203
H 54.91835021972656 47.500221252441406 51.22557830810547
C 52.816986083984375 48.22597122192383 51.31459426879883
H 52.27001190185547 47.363712310791016 51.681400299072266
C 52.24123764038086 49.48968505859375 50.940670013427734
N 53.22148513793945 50.40888214111328 50.63007736206055
C 50.879783630371094 49.90562057495117 50.99393081665039
C 50.384185791015625 51.162940979003906 51.32844543457031
C 49.36831283569336 51.983543395996094 50.74794006347656
H 48.58189010620117 51.61391067504883 50.09822082519531
C 49.44564437866211 53.1898193359375 51.278656005859375
H 48.709407806396484 53.97245788574219 51.12813186645508
C 50.614837646484375 53.35254669189453 52.04621887207031
N 51.10443878173828 52.10007095336914 51.96302032470703
H 51.95602798461914 51.77385330200195 52.39948272705078
C 51.11621856689453 54.439823150634766 52.621070861816406
H 50.566368103027344 55.35527801513672 52.407691955566406
C 52.37079620361328 54.66413116455078 53.235450744628906
C 53.10432434082031 55.88843536376953 53.51676940917969
H 52.71506118774414 56.86600112915039 53.25208282470703
C 54.34587097167969 55.510128021240234 53.89952087402344
H 55.162906646728516 56.19435501098633 54.103294372558594
C 54.36698532104492 54.175785064697266 53.93479919433594
N 53.16461181640625 53.6995849609375 53.53221130371094
C 48.07980728149414 46.98792266845703 49.39384078979492
C 47.63458251953125 48.170082092285156 49.951507568359375
H 46.56607437133789 48.36149215698242 50.00825500488281
C 48.55121994018555 49.08539581298828 50.53520202636719
H 48.104774475097656 49.92250061035156 51.0657844543457
C 49.9383659362793 48.87775802612305 50.3989143371582
C 49.4443473815918 46.78470993041992 49.18778610229492
H 49.7670783996582 45.921051025390625 48.612022399902344
C 50.34944534301758 47.74992370605469 49.73019790649414
H 51.40203094482422 47.616024017333984 49.494171142578125
N 47.16423416137695 46.113948822021484 48.84370803833008
H 46.994876861572266 46.18600845336914 47.85163497924805
C 46.49835205078125 45.14854431152344 49.5056266784668
O 46.64320755004883 44.99538040161133 50.69798278808594
C 45.5672607421875 44.20855712890625 48.777061462402344
C 45.031742095947266 44.53776168823242 47.54604721069336
H 45.2913932800293 45.48667907714844 47.08375930786133
C 44.026222229003906 43.77153778076172 46.94084930419922
C 43.61209487915039 42.56330871582031 47.53319549560547
H 42.80918884277344 41.966285705566406 47.108375549316406
C 44.29243469238281 42.09991455078125 48.6612548828125
H 44.02089309692383 41.13020706176758 49.07052230834961
C 45.211185455322266 42.95780563354492 49.30652618408203
H 45.55810546875 42.62562942504883 50.281654357910156
C 43.36760711669922 44.293296813964844 45.7165412902832
H 43.76908493041992 45.26362609863281 45.42809295654297
C 42.33885955810547 43.76806640625 44.95693588256836
H 41.97456741333008 42.76420211791992 45.1701774597168
C 41.695560455322266 44.43981170654297 43.825374603271484
C 41.745704650878906 45.938194274902344 43.83388900756836
H 41.63517761230469 46.2917366027832 44.86114501953125
H 41.06507110595703 46.40975570678711 43.12196731567383
H 42.6755256652832 46.233795166015625 43.343475341796875
C 41.18260192871094 43.654109954833984 42.84939193725586
H 41.211708068847656 42.583953857421875 43.048980712890625
C 40.4881477355957 44.03583526611328 41.63931655883789
H 40.56066131591797 45.079795837402344 41.33796691894531
C 39.99726486206055 43.11946487426758 40.82774353027344
H 40.05718994140625 42.09368133544922 41.18844223022461
C 39.3271369934082 43.26311111450195 39.54602813720703
C 38.93870544433594 41.94887161254883 38.911170959472656
H 39.32209014892578 41.09193801879883 39.46897888183594
H 37.864959716796875 41.86387252807617 38.731414794921875
H 39.32561111450195 41.86262893676758 37.89366149902344
C 39.27811050415039 44.40468978881836 38.92230224609375
H 39.599483489990234 45.28273391723633 39.4805908203125
C 38.762779235839844 44.74406433105469 37.57498550415039
H 37.935970306396484 44.16586685180664 37.16511154174805
C 39.19544219970703 45.81552505493164 36.83952713012695
H 39.99074172973633 46.4948616027832 37.14271926879883
C 38.52365493774414 46.213165283203125 35.592655181884766
H 37.585079193115234 45.67714309692383 35.4597053527832
C 38.88242721557617 47.24559783935547 34.792144775390625
C 40.1478157043457 48.007972717285156 34.887325286865234
H 40.0550537109375 48.650394439697266 35.765472412109375
H 41.0228385925293 47.35730743408203 34.945919036865234
H 40.298240661621094 48.68571472167969 34.04441452026367
C 38.00963592529297 47.587215423583984 33.65353012084961
H 37.5075798034668 46.77837371826172 33.12472152709961
C 37.81587600708008 48.83080291748047 33.132568359375
H 38.4470100402832 49.637142181396484 33.50325012207031
C 37.05693435668945 49.01932907104492 31.940841674804688
H 36.8442268371582 48.07417678833008 31.443485260009766
C 36.76991653442383 50.21763610839844 31.39016342163086
C 37.1857795715332 51.465606689453125 32.12517166137695
H 38.26482391357422 51.631065368652344 32.097537994384766
H 36.665611267089844 52.288455963134766 31.630390167236328
H 36.84410858154297 51.550018310546875 33.15890121459961
C 36.269771575927734 50.55965805053711 30.026596069335938
H 36.09814453125 51.59258270263672 29.727378845214844
C 36.00279998779297 49.60562515258789 29.081878662109375
H 36.131935119628906 48.56011199951172 29.357837677001953
C 35.53767395019531 49.87578201293945 27.73613739013672
C 36.066646575927734 49.234901428222656 26.637699127197266
C 37.22276306152344 48.21581268310547 26.615497589111328
H 38.039024353027344 48.55885696411133 25.976356506347656
H 37.61246871948242 48.10414123535156 27.629459381103516
H 36.91143035888672 47.198856353759766 26.367855072021484
C 35.484527587890625 49.418338775634766 25.234272003173828
H 35.08066940307617 48.4238395690918 25.033424377441406
H 36.347618103027344 49.49202346801758 24.56936264038086
C 34.40705108642578 50.493751525878906 24.945392608642578
H 33.91975784301758 50.251670837402344 23.998600006103516
H 34.91594696044922 51.43686294555664 24.735565185546875
C 33.50630569458008 50.453575134277344 26.186634063720703
H 32.67620086669922 51.1512451171875 26.057594299316406
H 33.1828727722168 49.41093063354492 26.159164428710938
C 34.29943084716797 50.806907653808594 27.450267791748047
C 34.76118850708008 52.269020080566406 27.33486557006836
H 34.74993896484375 52.82284927368164 28.275928497314453
H 35.72931671142578 52.4099006652832 26.849746704101562
H 33.95589065551758 52.724212646484375 26.754558563232422
C 33.2674560546875 50.70442199707031 28.54895782470703
H 33.664344787597656 50.66402053833008 29.565471649169922
H 32.60160827636719 51.56932067871094 28.51642608642578
H 32.68959045410156 49.778011322021484 28.56618881225586
