207
Triad, Carotenoid-Porphyrin-C60
C 63.68649673461914 42.93611145019531 40.560508728027344
C 60.15996170043945 48.31440734863281 41.30668640136719
C 61.58647537231445 47.30128479003906 42.76597595214844
C 63.39238357543945 45.76407241821289 42.723785400390625
C 59.685909271240234 48.339111328125 38.97333526611328
C 59.286502838134766 48.062110900878906 40.24546813964844
C 61.839359283447266 49.06016159057617 39.7324333190918
C 63.59196853637695 47.911014556884766 41.62348556518555
C 64.8387680053711 44.41947555541992 39.246002197265625
C 60.90689468383789 48.91517639160156 38.67776870727539
C 64.2575912475586 43.85633850097656 41.394325256347656
C 59.951663970947266 45.48949432373047 36.79657745361328
C 59.15645980834961 47.402523040771484 38.14286422729492
C 61.802974700927734 43.91143035888672 36.77895736694336
C 63.83774948120117 45.121734619140625 37.224082946777344
C 63.102718353271484 43.92098617553711 37.165748596191406
C 61.180179595947266 47.41071319580078 36.87051773071289
C 63.120235443115234 48.69795227050781 39.37290954589844
C 64.00694274902344 48.113895416259766 40.27322769165039
C 64.79759979248047 46.73574447631836 38.472164154052734
C 59.25859451293945 43.881378173828125 42.1580924987793
C 58.49026870727539 44.63240432739258 41.09054183959961
C 59.97990036010742 45.0506591796875 42.800777435302734
C 59.45463180541992 46.24654006958008 42.371070861816406
C 61.90507125854492 42.43888854980469 38.47001266479492
C 58.54609298706055 44.22821807861328 39.72085952758789
C 63.45474624633789 44.35740280151367 42.437774658203125
C 59.1976432800293 44.620697021484375 37.59154510498047
C 58.43735122680664 46.49807357788086 38.94041442871094
C 61.07265090942383 43.09574890136719 37.58809280395508
C 61.35964584350586 44.94381332397461 43.0511589050293
C 62.0009880065918 46.37662124633789 36.46139144897461
C 63.32758712768555 46.29610824584961 36.83340072631836
C 64.8956298828125 47.15351867675781 39.843055725097656
C 63.00685501098633 48.32435989379883 38.03780746459961
C 60.14767074584961 42.73452377319336 41.66355895996094
C 60.14040756225586 42.449241638183594 40.180274963378906
C 61.648799896240234 42.87567901611328 41.841007232666016
C 61.4564323425293 42.19169616699219 39.73092269897461
C 64.74366760253906 45.38010787963867 38.2147216796875
C 58.620662689208984 46.02252197265625 41.31440734863281
C 62.18549728393555 43.90087890625 42.64918518066406
C 62.3382453918457 42.45869064331055 40.7333984375
C 62.16115188598633 46.09383773803711 43.21590042114258
C 63.19704055786133 42.942527770996094 38.19468307495117
C 59.3204460144043 43.16139221191406 39.28421401977539
C 58.48667526245117 45.129249572753906 38.701210021972656
C 60.28684616088867 47.35930633544922 42.29152297973633
C 58.53325271606445 46.962032318115234 40.26713562011719
C 63.886653900146484 47.33393859863281 37.589942932128906
C 59.77322769165039 43.45552444458008 38.017372131347656
C 64.06792449951172 43.23362350463867 39.265071868896484
C 61.435245513916016 48.806190490722656 41.053157806396484
C 62.31459426879883 48.22692108154297 42.01451110839844
C 64.14977264404297 46.64546203613281 41.964073181152344
C 64.92801666259766 44.8043098449707 40.56121826171875
C 59.91939163208008 46.847015380859375 37.05849838256836
C 61.258243560791016 45.16167068481445 36.35026550292969
C 64.89813232421875 46.158897399902344 40.8589973449707
C 61.68889236450195 48.4166259765625 37.640628814697266
C 58.26864242553711 43.060691833496094 43.0291748046875
N 58.377925872802734 41.78227233886719 42.980804443359375
C 59.69257736206055 41.44879150390625 42.382591247558594
H 59.66799545288086 40.52918243408203 41.792362213134766
H 60.307491302490234 41.30213165283203 43.274234771728516
C 54.605533599853516 45.21551513671875 44.26408386230469
C 54.6013298034668 44.0843505859375 43.476234436035156
H 53.640987396240234 43.677494049072266 43.16999816894531
C 55.83523941040039 43.354408264160156 43.063720703125
H 55.74660873413086 42.41965103149414 42.516048431396484
C 57.04448318481445 43.784236907958984 43.52549743652344
C 55.87209701538086 45.66193771362305 44.70314025878906
H 55.89228439331055 46.51319885253906 45.3787956237793
C 57.058284759521484 44.954742431640625 44.29923629760742
H 58.01723098754883 45.39060974121094 44.567604064941406
C 53.3382682800293 45.87108612060547 44.653743743896484
C 52.024532318115234 45.50454330444336 44.10857391357422
C 51.67953872680664 45.10201644897461 42.80780792236328
H 52.34403610229492 45.19491195678711 41.95513916015625
C 50.24198532104492 44.97479248046875 42.830284118652344
H 49.593990325927734 44.86349105834961 41.967185974121094
C 49.75570297241211 45.170936584472656 44.08268356323242
N 50.82773971557617 45.55937576293945 44.86600875854492
H 50.77938461303711 45.921085357666016 45.80885314941406
C 48.37314987182617 45.249717712402344 44.614463806152344
H 47.61789321899414 45.035491943359375 43.8597297668457
C 47.95737838745117 45.34730911254883 45.912967681884766
C 46.573856353759766 45.299591064453125 46.300350189208984
H 45.75748825073242 45.06831741333008 45.624122619628906
C 46.580623626708984 45.64865493774414 47.6378059387207
H 45.769779205322266 45.833900451660156 48.33453369140625
C 47.94328689575195 45.741477966308594 48.02554702758789
N 48.76753616333008 45.69796371459961 46.96443557739258
C 48.36629104614258 46.13933563232422 49.34041976928711
C 49.35686111450195 47.12411117553711 49.54704666137695
C 49.24715042114258 48.40028762817383 50.2588005065918
H 48.398624420166016 48.60163116455078 50.904319763183594
C 50.20917892456055 49.262428283691406 49.77178955078125
H 50.315364837646484 50.327186584472656 49.951358795166016
C 51.087703704833984 48.525291442871094 48.899105072021484
N 50.45194625854492 47.30894088745117 48.81300354003906
H 50.81599044799805 46.610450744628906 48.179203033447266
C 52.09975814819336 48.95683670043945 48.138179779052734
H 52.2763786315918 50.01205825805664 48.341243743896484
C 52.759525299072266 48.4953727722168 46.938682556152344
C 53.73067855834961 49.11017608642578 46.05428695678711
H 54.13369369506836 50.10810089111328 46.19194793701172
C 54.06563186645508 48.15643310546875 45.13663101196289
H 54.73347854614258 48.26047897338867 44.287872314453125
C 53.32578659057617 47.01963806152344 45.48019027709961
N 52.54609298706055 47.24030685424805 46.50148010253906
C 47.04220199584961 44.174922943115234 53.08734893798828
C 47.98552322387695 45.24292755126953 53.10978317260742
H 48.333187103271484 45.59729766845703 54.07680130004883
C 48.42678451538086 45.8746337890625 51.92242431640625
H 49.1623649597168 46.66300964355469 52.06011962890625
C 47.94974899291992 45.40494155883789 50.64945983886719
C 46.622501373291016 43.74177932739258 51.78857421875
H 45.865299224853516 42.963069915771484 51.74571990966797
C 47.04172897338867 44.32267761230469 50.62007522583008
H 46.67161178588867 43.98598098754883 49.65507888793945
N 46.54265213012695 43.624542236328125 54.28293991088867
H 45.8503532409668 44.18977737426758 54.751251220703125
C 46.88869857788086 42.408851623535156 54.79824447631836
O 47.80625534057617 41.77302932739258 54.34182357788086
C 46.09115219116211 42.09856414794922 56.14136505126953
C 44.96993637084961 42.76839065551758 56.52438735961914
H 44.57646560668945 43.58388900756836 55.92295455932617
C 44.299251556396484 42.51953125 57.71731185913086
C 44.70650863647461 41.479862213134766 58.54035568237305
H 44.20500564575195 41.300758361816406 59.48797607421875
C 45.85037612915039 40.81571578979492 58.22211456298828
H 46.2208137512207 40.005859375 58.84539794921875
C 46.509769439697266 41.07352066040039 57.0391960144043
H 47.384639739990234 40.48479080200195 56.775428771972656
C 43.14280319213867 43.412899017333984 58.06814193725586
H 42.82233810424805 44.067501068115234 57.25899124145508
C 42.36788558959961 43.393043518066406 59.15757751464844
H 42.66728591918945 42.746639251708984 59.98125457763672
C 41.19203567504883 44.23539733886719 59.381141662597656
C 39.95439529418945 43.66367721557617 59.97454833984375
H 40.01999282836914 42.57591247558594 59.90439224243164
H 39.113521575927734 44.071651458740234 59.40979766845703
H 39.75179672241211 44.020694732666016 60.98645782470703
C 41.23945999145508 45.59073257446289 59.17491149902344
H 42.12723922729492 46.06278610229492 58.756656646728516
C 40.09382247924805 46.50836181640625 59.30708694458008
H 39.224605560302734 46.131343841552734 59.843955993652344
C 40.09823226928711 47.755165100097656 58.873233795166016
H 41.0141716003418 48.07268142700195 58.37709045410156
C 39.10292434692383 48.79468536376953 58.93665313720703
C 37.73244857788086 48.473575592041016 59.433692932128906
H 37.21418380737305 49.332332611083984 59.86541748046875
H 37.23208236694336 47.952171325683594 58.615013122558594
H 37.751102447509766 47.73069381713867 60.23384475708008
C 39.29374313354492 49.99238967895508 58.41489028930664
H 40.27556228637695 50.25848388671875 58.02610397338867
C 38.3249626159668 51.124752044677734 58.27628707885742
H 37.25502395629883 51.01451873779297 58.44656753540039
C 38.52901840209961 52.28190231323242 57.696983337402344
H 39.53208541870117 52.56864547729492 57.38462829589844
C 37.569400787353516 53.320526123046875 57.48535919189453
H 36.60696792602539 53.158172607421875 57.96836853027344
C 37.615047454833984 54.40608215332031 56.63015365600586
C 38.77509689331055 54.59999084472656 55.71406936645508
H 39.43740463256836 55.31981658935547 56.19951248168945
H 39.37063980102539 53.697471618652344 55.561580657958984
H 38.52009201049805 54.94982147216797 54.711544036865234
C 36.532222747802734 55.33190155029297 56.46699523925781
H 35.68976974487305 55.12880325317383 57.12649917602539
C 36.42714309692383 56.477657318115234 55.775386810302734
H 37.29239273071289 56.75733947753906 55.176177978515625
C 35.29624557495117 57.34852981567383 55.7109260559082
H 34.45937728881836 56.943023681640625 56.277626037597656
C 35.236080169677734 58.50898742675781 54.99189376831055
C 36.17953872680664 58.96586227416992 53.9631462097168
H 36.779903411865234 58.14333724975586 53.56884002685547
H 35.69717788696289 59.302677154541016 53.043174743652344
H 36.92105484008789 59.68447494506836 54.31841278076172
C 33.99723434448242 59.34180450439453 55.04993438720703
H 33.27937698364258 58.82523727416992 55.68537139892578
C 33.65616989135742 60.55875778198242 54.50390625
H 34.38162612915039 60.97005844116211 53.80357360839844
C 32.4494743347168 61.37727737426758 54.60163879394531
C 31.60660171508789 61.41227340698242 55.59727478027344
C 31.797657012939453 60.79043960571289 56.97262191772461
H 32.851993560791016 60.8618049621582 57.24781036376953
H 31.199474334716797 61.2792854309082 57.74441909790039
H 31.55514907836914 59.72572708129883 56.97934341430664
C 30.432483673095703 62.38603973388672 55.71314239501953
H 30.807987213134766 63.28155517578125 56.21265411376953
H 29.634822845458984 62.07574462890625 56.39132308959961
C 29.80575942993164 62.71504211425781 54.33329772949219
H 29.086772918701172 63.52216720581055 54.488433837890625
H 29.307384490966797 61.83279800415039 53.92620086669922
C 30.985218048095703 63.21078109741211 53.47625732421875
H 30.634235382080078 63.58828353881836 52.51356887817383
H 31.393146514892578 64.09358978271484 53.97294998168945
C 32.18046188354492 62.252994537353516 53.34391403198242
C 31.824222564697266 61.20652389526367 52.221336364746094
H 30.864574432373047 60.729305267333984 52.43061447143555
H 31.78414535522461 61.64388656616211 51.22154998779297
H 32.5684700012207 60.4084358215332 52.26151657104492
C 33.33462905883789 63.00849533081055 52.66920852661133
H 32.91073226928711 63.64857482910156 51.892635345458984
H 33.77781295776367 63.6918830871582 53.39655685424805
H 34.082088470458984 62.39241409301758 52.16501235961914
