207
Triad, Carotenoid-Porphyrin-C60
C 60.911537170410156 59.81708526611328 48.3538818359375
C 63.46097946166992 54.855934143066406 51.78419876098633
C 62.507572174072266 54.95221710205078 49.73163604736328
C 61.96893310546875 56.48162078857422 47.93950271606445
C 64.46345520019531 56.49683380126953 53.31123733520508
C 63.46416473388672 55.553688049316406 53.03276824951172
C 65.48906707763672 56.089210510253906 51.13721466064453
C 64.28358459472656 56.1199951171875 48.63798141479492
C 63.007198333740234 60.283935546875 48.26401901245117
C 65.5186996459961 56.76921081542969 52.381195068359375
C 61.46429443359375 58.814308166503906 47.623600006103516
C 63.29884719848633 59.87640380859375 53.793678283691406
C 63.86457061767578 57.546348571777344 54.052555084228516
C 62.799102783203125 61.51618194580078 52.060359954833984
C 64.2484359741211 61.15595245361328 50.11498260498047
C 63.050270080566406 61.62825012207031 50.63014221191406
C 65.29684448242188 59.18061065673828 52.91064453125
C 65.86807250976562 57.02513122558594 50.21883773803711
C 65.24105834960938 57.03406524658203 48.975223541259766
C 65.22520446777344 59.47888946533203 48.941162109375
C 59.183921813964844 56.711830139160156 51.52254104614258
C 60.05944061279297 56.843109130859375 52.74844741821289
C 60.0112190246582 55.6666259765625 50.73858642578125
C 61.05596160888672 55.13322448730469 51.57024383544922
C 60.861751556396484 61.160911560058594 50.9080810546875
C 60.37442398071289 58.08686828613281 53.34357833862305
C 61.05048751831055 57.47340393066406 47.84077453613281
C 61.95229721069336 59.61029815673828 53.961971282958984
C 62.498146057128906 57.23607635498047 54.124507904052734
C 61.45134353637695 61.20356750488281 52.17331314086914
C 60.305686950683594 55.954246520996094 49.38726806640625
C 64.93341064453125 60.34727478027344 52.283329010009766
C 65.22708892822266 60.56553649902344 50.969566345214844
C 64.8916244506836 58.26350402832031 48.39290237426758
C 66.0894546508789 58.240989685058594 50.84995651245117
C 58.86602783203125 58.05304718017578 50.83559799194336
C 59.45283508300781 59.25835418701172 51.48044204711914
C 59.451778411865234 58.23094940185547 49.46747970581055
C 59.90335464477539 60.117164611816406 50.53910827636719
C 64.25933074951172 60.46210479736328 48.902618408203125
C 61.01126480102539 55.827911376953125 52.82366943359375
C 60.004676818847656 57.176109313964844 48.77436828613281
C 59.899559020996094 59.50103759765625 49.28341293334961
C 61.55254364013672 55.57872009277344 48.87205505371094
C 61.79658508300781 61.468414306640625 49.95128631591797
C 60.09929656982422 59.26631164550781 52.751373291015625
C 61.55900192260742 58.29363250732422 54.027565002441406
C 62.28726577758789 54.666419982910156 51.06863784790039
C 62.246543884277344 56.039886474609375 53.50350570678711
C 65.72222137451172 59.43486785888672 50.254913330078125
C 61.03145980834961 60.25819396972656 53.14431381225586
C 61.82961654663086 60.81659698486328 48.67291259765625
C 64.4117202758789 55.20673370361328 50.85258865356445
C 63.84820556640625 55.16680145263672 49.57704162597656
C 63.3741340637207 56.77288818359375 47.868255615234375
C 62.82887268066406 59.090728759765625 47.54751205444336
C 64.23664093017578 58.86034393310547 53.83834457397461
C 63.68562316894531 60.79804229736328 52.859737396240234
C 63.77545166015625 58.076026916503906 47.63022232055664
C 65.86302185058594 58.117225646972656 52.195068359375
C 57.78076934814453 56.109466552734375 51.78617858886719
N 56.8073844909668 56.94976043701172 51.48114013671875
C 57.338321685791016 58.167442321777344 50.79216384887695
H 57.03373718261719 59.061134338378906 51.34280776977539
H 57.04539489746094 58.232025146484375 49.74113082885742
C 57.046207427978516 52.004737854003906 53.19791793823242
C 57.033203125 53.07752227783203 54.0400390625
H 56.77874755859375 52.94561004638672 55.08857727050781
C 57.280269622802734 54.404266357421875 53.5941047668457
H 57.42048263549805 55.1727294921875 54.35000228881836
C 57.5372428894043 54.730560302734375 52.2689323425293
C 57.206851959228516 52.362525939941406 51.83709716796875
H 57.13075637817383 51.622779846191406 51.04428482055664
C 57.38798522949219 53.690284729003906 51.3499641418457
H 57.489967346191406 53.939453125 50.296836853027344
C 56.94015121459961 50.526824951171875 53.56228256225586
C 56.62946319580078 50.26885223388672 54.96664810180664
C 57.052066802978516 50.71088409423828 56.158302307128906
H 57.979793548583984 51.247169494628906 56.328468322753906
C 56.36122512817383 50.08662414550781 57.196224212646484
H 56.477149963378906 50.16752624511719 58.27197265625
C 55.34282302856445 49.423484802246094 56.68446350097656
N 55.402252197265625 49.61146545410156 55.34634017944336
H 54.719120025634766 49.28948974609375 54.6741943359375
C 54.22329330444336 48.743492126464844 57.287837982177734
H 53.949581146240234 48.99650573730469 58.311058044433594
C 53.371620178222656 47.89515686035156 56.63292694091797
C 51.983055114746094 48.168792724609375 56.597991943359375
H 51.50429916381836 49.011932373046875 57.0849494934082
C 51.47603988647461 47.206871032714844 55.71733474731445
H 50.46970748901367 47.174156188964844 55.313045501708984
C 52.577354431152344 46.3905029296875 55.262699127197266
N 53.6968879699707 46.86866760253906 55.78533172607422
C 52.55677032470703 45.325538635253906 54.2765007019043
C 53.54484939575195 45.07001495361328 53.352073669433594
C 53.914024353027344 43.8865966796875 52.585716247558594
H 53.35744857788086 42.969764709472656 52.7496452331543
C 54.93217849731445 44.17539978027344 51.719635009765625
H 55.44382095336914 43.45561218261719 51.089263916015625
C 55.39910888671875 45.52104187011719 51.953006744384766
N 54.542762756347656 45.97222137451172 52.884429931640625
H 54.60587692260742 46.88904571533203 53.305824279785156
C 56.427947998046875 46.11329650878906 51.41099548339844
H 57.091495513916016 45.44084930419922 50.869285583496094
C 56.925167083740234 47.45738983154297 51.73270034790039
C 58.094539642333984 48.09044647216797 51.19123458862305
H 58.57236099243164 47.625572204589844 50.33519744873047
C 58.169525146484375 49.351295471191406 51.73799133300781
H 59.00165557861328 50.029441833496094 51.580196380615234
C 57.14463806152344 49.48204040527344 52.64046096801758
N 56.392303466796875 48.33821105957031 52.5689697265625
C 48.813961029052734 43.23078155517578 53.63543701171875
C 49.75 43.40851593017578 52.63750076293945
H 49.58269119262695 42.95988464355469 51.66164016723633
C 50.92607498168945 44.10026550292969 52.84425354003906
H 51.5451545715332 44.33671569824219 51.982627868652344
C 51.29353332519531 44.65076446533203 54.09775161743164
C 49.13779830932617 43.786865234375 54.86328125
H 48.47642517089844 43.529457092285156 55.68662643432617
C 50.355411529541016 44.52033996582031 55.10505676269531
H 50.720027923583984 44.75611114501953 56.101566314697266
N 47.58240509033203 42.51274871826172 53.44316864013672
H 46.96836471557617 42.571685791015625 54.241641998291016
C 47.15534210205078 41.63728332519531 52.463504791259766
O 47.875240325927734 41.402122497558594 51.51194763183594
C 45.753910064697266 41.106414794921875 52.65046310424805
C 44.86653518676758 41.130401611328125 51.578857421875
H 45.22980499267578 41.64141845703125 50.69089889526367
C 43.57033920288086 40.77635955810547 51.762691497802734
C 43.16180419921875 40.215126037597656 52.93804168701172
H 42.17253112792969 39.76481628417969 52.949607849121094
C 44.014434814453125 40.10316467285156 54.04477310180664
H 43.700862884521484 39.481666564941406 54.8796272277832
C 45.32164001464844 40.522857666015625 53.844539642333984
H 46.020938873291016 40.35044860839844 54.65867614746094
C 42.57455062866211 40.81640625 50.61355209350586
H 43.091583251953125 41.3238525390625 49.80047607421875
C 41.30073928833008 40.49848937988281 50.40571212768555
H 40.73933410644531 40.112037658691406 51.255069732666016
C 40.484432220458984 40.74254608154297 49.2113151550293
C 41.28154373168945 41.21626281738281 47.996421813964844
H 41.577171325683594 42.24280548095703 48.22286605834961
H 40.71941375732422 41.22297668457031 47.060245513916016
H 42.161014556884766 40.574462890625 47.91220474243164
C 39.21201705932617 40.591583251953125 49.304443359375
H 38.92634963989258 40.2960205078125 50.312889099121094
C 38.208248138427734 40.847869873046875 48.31789779663086
H 38.498687744140625 41.331520080566406 47.38642120361328
C 36.88979721069336 40.72167205810547 48.526790618896484
H 36.52863311767578 40.3892822265625 49.498905181884766
C 35.829872131347656 40.92121887207031 47.535377502441406
C 34.81205749511719 39.85260772705078 47.560115814208984
H 33.85866928100586 40.376258850097656 47.46363830566406
H 35.031002044677734 39.174354553222656 46.73277282714844
H 34.7650032043457 39.332366943359375 48.519073486328125
C 35.797523498535156 41.96936798095703 46.70573806762695
H 36.58809280395508 42.71282958984375 46.796180725097656
C 34.92203140258789 42.11663055419922 45.611419677734375
H 34.37479019165039 41.21295928955078 45.34716033935547
C 34.849727630615234 43.227806091308594 44.82341003417969
H 35.52091979980469 44.056854248046875 45.04270935058594
C 33.924766540527344 43.473548889160156 43.803401947021484
H 33.617835998535156 42.55463409423828 43.306095123291016
C 33.37624740600586 44.5986328125 43.2642936706543
C 33.90872573852539 45.92817687988281 43.577232360839844
H 34.749267578125 46.26561737060547 42.96724319458008
H 33.11124038696289 46.67216491699219 43.522857666015625
H 34.26793670654297 46.001014709472656 44.60588455200195
C 32.38307571411133 44.700042724609375 42.232177734375
H 32.216304779052734 45.66273498535156 41.751220703125
C 31.648439407348633 43.67853546142578 41.7956657409668
H 31.788705825805664 42.68321228027344 42.21467971801758
C 30.69452667236328 43.722434997558594 40.67613983154297
H 30.595277786254883 44.66527557373047 40.14029312133789
C 30.107473373413086 42.641143798828125 40.06621170043945
C 30.202329635620117 41.24726867675781 40.523704528808594
H 29.281688690185547 40.67918395996094 40.3748779296875
H 31.053817749023438 40.71135711669922 40.09916687011719
H 30.295001983642578 41.13218688964844 41.60566329956055
C 29.54583740234375 42.84739685058594 38.7954216003418
H 29.333032608032227 43.89714050292969 38.5987663269043
C 29.18987274169922 41.895233154296875 37.8382453918457
H 29.463191986083984 40.85454559326172 38.006141662597656
C 28.44158935546875 42.124725341796875 36.589569091796875
C 28.954753875732422 42.73869323730469 35.5180549621582
C 30.369064331054688 43.29661560058594 35.312896728515625
H 30.322237014770508 44.29887390136719 34.88190841674805
H 30.661636352539062 43.36974334716797 36.36243438720703
H 30.956180572509766 42.64905548095703 34.658363342285156
C 28.111675262451172 43.103248596191406 34.33001708984375
H 28.712125778198242 42.86708068847656 33.44902420043945
H 28.00950813293457 44.189483642578125 34.28413772583008
C 26.72357940673828 42.528587341308594 34.22993469238281
H 26.708797454833984 41.51570129394531 33.82211685180664
H 26.086313247680664 42.999732971191406 33.47867965698242
C 26.09761619567871 42.52522277832031 35.62629699707031
H 25.91757583618164 43.56897735595703 35.892059326171875
H 25.197145462036133 41.99995422363281 35.3011589050293
C 26.9406681060791 41.781578063964844 36.67362976074219
C 26.191503524780273 41.99823760986328 37.95122528076172
H 25.217546463012695 41.51612854003906 37.844276428222656
H 26.64402961730957 41.441810607910156 38.77467346191406
H 26.167882919311523 43.05499267578125 38.225399017333984
C 26.66835594177246 40.26787567138672 36.35981750488281
H 27.003860473632812 39.9229736328125 35.37954330444336
H 27.273775100708008 39.64618682861328 37.02271270751953
H 25.673831939697266 39.85057830810547 36.53083801269531
