207
Triad, Carotenoid-Porphyrin-C60
C 38.07206726074219 45.48731231689453 32.21138000488281
C 38.56538772583008 51.32520294189453 35.05523681640625
C 39.735862731933594 50.412017822265625 33.412227630615234
C 39.59989547729492 48.67498016357422 31.742752075195312
C 36.43193817138672 50.96214294433594 36.06234359741211
C 37.789276123046875 51.00836181640625 36.164031982421875
C 36.51417541503906 51.54681396484375 33.73965835571289
C 38.033748626708984 50.47474670410156 31.713605880737305
C 36.292816162109375 46.584571838378906 31.370023727416992
C 35.754451751708984 51.24463653564453 34.86207962036133
C 38.52919387817383 46.53688049316406 31.4300537109375
C 34.861175537109375 47.794921875 36.610633850097656
C 35.91085433959961 49.92936706542969 36.82183074951172
C 34.65526580810547 45.96953582763672 35.03022384643555
C 34.3381233215332 46.871177673339844 32.7310676574707
C 34.77027130126953 45.8663330078125 33.624359130859375
C 34.14641571044922 49.4315185546875 35.17494201660156
C 35.8251953125 51.005462646484375 32.67808151245117
C 36.62456512451172 50.46605682373047 31.664043426513672
C 35.12628936767578 48.621681213378906 31.495229721069336
C 40.47809982299805 47.16309356689453 36.112937927246094
C 39.428890228271484 47.82850646972656 37.0279426574707
C 40.66341781616211 48.33979797363281 35.11006546020508
C 40.05975341796875 49.46953582763672 35.63297653198242
C 36.59794616699219 44.850486755371094 34.510555267333984
C 38.1847038269043 47.188270568847656 37.31290817260742
C 39.64381790161133 47.295562744140625 31.901716232299805
C 35.937103271484375 47.179840087890625 37.20051574707031
C 37.02429962158203 49.337547302246094 37.43653106689453
C 35.80376052856445 45.309410095214844 35.56849670410156
C 40.61631393432617 48.19212341308594 33.73062515258789
C 33.828330993652344 48.195045471191406 34.67905807495117
C 33.89101791381836 48.064476013183594 33.27104187011719
C 36.30063247680664 49.266197204589844 31.078697204589844
C 34.66444396972656 50.400360107421875 33.09633255004883
C 40.01411056518555 45.87389373779297 35.429107666015625
C 38.62881851196289 45.42687225341797 35.749366760253906
C 39.86322784423828 45.89539337158203 33.888938903808594
C 37.958377838134766 44.93029022216797 34.634307861328125
C 35.092979431152344 47.222557067871094 31.594688415527344
C 39.32426071166992 49.20244598388672 36.75775146484375
C 40.24245834350586 46.9832763671875 33.0982780456543
C 38.711341857910156 45.22589111328125 33.50001907348633
C 40.24964141845703 49.24906921386719 32.8397331237793
C 35.990745544433594 45.19322204589844 33.31925582885742
C 37.8126335144043 46.01457214355469 36.71125411987305
C 37.03855514526367 47.917510986328125 37.62861633300781
C 39.64143753051758 50.52272033691406 34.80133819580078
C 38.17273712158203 49.968719482421875 37.024017333984375
C 34.35516357421875 49.13926696777344 32.536285400390625
C 36.45119094848633 45.999671936035156 36.64719772338867
C 36.69216537475586 45.479705810546875 32.118194580078125
C 37.909812927246094 51.53758239746094 33.88002014160156
C 38.66598892211914 51.069435119628906 32.818634033203125
C 38.541221618652344 49.333518981933594 31.13125228881836
C 37.41054916381836 47.18828582763672 30.880847930908203
C 34.863563537597656 49.168678283691406 36.35810852050781
C 34.219207763671875 47.192222595214844 35.54262924194336
C 37.434268951416016 48.5831298828125 30.71741485595703
C 34.595829010009766 50.52692413330078 34.478614807128906
C 41.747440338134766 46.77574157714844 36.816368103027344
N 42.05268096923828 45.59833526611328 36.631099700927734
C 41.075103759765625 44.839599609375 35.894073486328125
H 40.63441848754883 43.988731384277344 36.41987609863281
H 41.60304641723633 44.481224060058594 35.00666427612305
C 44.81446838378906 49.506736755371094 38.17767333984375
C 43.555030822753906 49.43909454345703 38.812583923339844
H 43.384071350097656 50.08741760253906 39.66815948486328
C 42.522483825683594 48.64454650878906 38.25449752807617
H 41.5253791809082 48.62821960449219 38.68703842163086
C 42.82020950317383 47.73036193847656 37.235713958740234
C 45.17024230957031 48.504608154296875 37.29631805419922
H 46.190486907958984 48.38774871826172 36.939918518066406
C 44.1819953918457 47.58257293701172 36.924991607666016
H 44.410091400146484 46.790130615234375 36.216773986816406
C 45.88104248046875 50.44673156738281 38.837276458740234
C 45.4138298034668 51.440574645996094 39.897125244140625
C 44.36432647705078 52.22510528564453 39.98330307006836
H 43.571388244628906 52.361061096191406 39.25529098510742
C 44.49684143066406 53.04939270019531 41.154380798339844
H 43.82616424560547 53.84681701660156 41.45692825317383
C 45.630916595458984 52.631980895996094 41.8399543762207
N 46.12516784667969 51.62754821777344 41.025901794433594
H 46.913333892822266 51.02660369873047 41.22533416748047
C 46.17241287231445 52.99629211425781 43.081504821777344
H 45.52690887451172 53.73980712890625 43.54673385620117
C 47.47084045410156 52.92491149902344 43.61106872558594
C 47.9878044128418 53.728797912597656 44.64539337158203
H 47.39161682128906 54.484703063964844 45.145790100097656
C 49.31312942504883 53.363792419433594 44.83784866333008
H 50.11246871948242 53.75536346435547 45.45829391479492
C 49.560306549072266 52.334930419921875 43.846805572509766
N 48.43965530395508 52.117706298828125 43.04896926879883
C 50.76616668701172 51.63373565673828 43.5971794128418
C 51.25013732910156 51.46488952636719 42.3433723449707
C 52.483699798583984 51.74981689453125 41.78132629394531
H 53.30475616455078 52.03064727783203 42.432655334472656
C 52.4476318359375 51.41502380371094 40.428653717041016
H 53.372798919677734 51.46180725097656 39.8637580871582
C 51.16249084472656 51.12653350830078 40.02845001220703
N 50.519920349121094 51.1302490234375 41.21736145019531
H 49.518760681152344 51.012603759765625 41.1401252746582
C 50.70346450805664 50.906517028808594 38.73215103149414
H 51.49967956542969 50.98688507080078 37.993568420410156
C 49.358154296875 50.730812072753906 38.26020431518555
C 48.83621597290039 50.55567932128906 36.98539352416992
H 49.460914611816406 50.562538146972656 36.09830093383789
C 47.498756408691406 50.456520080566406 37.141685485839844
H 46.79354476928711 50.51228332519531 36.31901168823242
C 47.21470260620117 50.41802978515625 38.46830749511719
N 48.33757019042969 50.63513946533203 39.11279296875
C 52.725189208984375 49.42225646972656 46.79313278198242
C 53.0582275390625 49.167144775390625 45.472450256347656
H 53.86578369140625 48.51129150390625 45.15736770629883
C 52.4290657043457 49.869789123535156 44.44055938720703
H 52.70977783203125 49.745849609375 43.397769927978516
C 51.426116943359375 50.837860107421875 44.72040557861328
C 51.601505279541016 50.189002990722656 47.07112503051758
H 51.34865188598633 50.186119079589844 48.12830352783203
C 50.92411422729492 50.87165069580078 46.01634979248047
H 49.99819564819336 51.3846435546875 46.263511657714844
N 53.407318115234375 48.742271423339844 47.83173751831055
H 53.461700439453125 47.74223327636719 47.70906066894531
C 53.91349411010742 49.2655029296875 48.95915985107422
O 53.69828796386719 50.48466491699219 49.147647857666016
C 54.53535842895508 48.43548583984375 50.010440826416016
C 54.49435043334961 48.83618927001953 51.284976959228516
H 54.025794982910156 49.77545928955078 51.567466735839844
C 55.07205581665039 48.02472686767578 52.31669998168945
C 55.78868103027344 46.893699645996094 51.95476531982422
H 56.324119567871094 46.28852081298828 52.68183898925781
C 55.722618103027344 46.45942687988281 50.60573959350586
H 56.294281005859375 45.58952331542969 50.292633056640625
C 54.982391357421875 47.17005157470703 49.67148208618164
H 54.871219635009766 46.85369873046875 48.63749313354492
C 55.05689239501953 48.42456817626953 53.743743896484375
H 54.387718200683594 49.27660369873047 53.85398864746094
C 55.63809585571289 47.87202453613281 54.80766677856445
H 56.417118072509766 47.118385314941406 54.702423095703125
C 55.55121612548828 48.24718475341797 56.17005920410156
C 54.508480072021484 49.211692810058594 56.57352066040039
H 54.07793045043945 49.77143859863281 55.7405891418457
H 54.92243957519531 49.85175323486328 57.35545349121094
H 53.66060256958008 48.619773864746094 56.92451858520508
C 56.26500701904297 47.611793518066406 57.07174301147461
H 56.83388900756836 46.81458282470703 56.59556579589844
C 56.44542694091797 47.62214660644531 58.49000930786133
H 55.909751892089844 48.35662841796875 59.08960723876953
C 57.14133071899414 46.70758056640625 59.1370735168457
H 57.6911506652832 46.02910614013672 58.4864616394043
C 57.43257522583008 46.590248107910156 60.592979431152344
C 57.957420349121094 45.248085021972656 61.07126235961914
H 58.83966064453125 45.379974365234375 61.70111083984375
H 57.122127532958984 44.75598907470703 61.573848724365234
H 58.356842041015625 44.68867492675781 60.222740173339844
C 57.17144775390625 47.52189636230469 61.53218460083008
H 56.81443405151367 48.50587463378906 61.23176574707031
C 57.31696701049805 47.413856506347656 62.93804931640625
H 57.742042541503906 46.4866943359375 63.319644927978516
C 57.134559631347656 48.48527526855469 63.76805877685547
H 56.75389099121094 49.39118957519531 63.29867172241211
C 57.28779983520508 48.455078125 65.21497344970703
H 57.998294830322266 47.6680908203125 65.46348571777344
C 56.73835372924805 49.22705078125 66.16471099853516
C 55.64055252075195 50.113304138183594 65.68272399902344
H 55.09933090209961 49.63268280029297 64.86508178710938
H 54.9477653503418 50.32926940917969 66.49873352050781
H 56.02109146118164 51.04779815673828 65.26515197753906
C 56.98579025268555 49.05072021484375 67.57610321044922
H 56.146629333496094 49.14842987060547 68.26325988769531
C 58.1770133972168 48.703765869140625 68.0462646484375
H 58.990821838378906 48.603538513183594 67.32962036132812
C 58.44390869140625 48.363380432128906 69.49223327636719
H 57.88576889038086 48.91095733642578 70.25022888183594
C 59.45686340332031 47.664703369140625 70.00563049316406
C 60.49740982055664 47.12175750732422 69.13990783691406
H 61.111488342285156 46.384605407714844 69.66142272949219
H 60.14519119262695 46.746307373046875 68.17687225341797
H 61.15007781982422 47.90137481689453 68.7415542602539
C 59.65326690673828 47.498992919921875 71.40704345703125
H 60.57477569580078 46.961509704589844 71.62580108642578
C 58.847503662109375 47.78813934326172 72.4357681274414
H 57.84914016723633 48.16088104248047 72.21159362792969
C 59.045291900634766 47.388885498046875 73.87686157226562
C 58.100257873535156 46.55134582519531 74.40461730957031
C 56.99870681762695 45.88093566894531 73.5784912109375
H 56.766475677490234 44.991233825683594 74.16753387451172
H 56.067020416259766 46.43537139892578 73.44805145263672
H 57.375736236572266 45.623748779296875 72.58644104003906
C 58.07661056518555 46.117942810058594 75.84201049804688
H 58.54610824584961 45.14537048339844 76.00367736816406
H 57.034210205078125 45.965492248535156 76.12947845458984
C 58.683448791503906 47.191368103027344 76.76097106933594
H 58.703834533691406 46.86430358886719 77.8026351928711
H 58.115135192871094 48.12376403808594 76.74977111816406
C 60.09675598144531 47.50982666015625 76.20970153808594
H 60.644073486328125 48.182411193847656 76.87342071533203
H 60.68783187866211 46.595237731933594 76.29115295410156
C 60.17218017578125 48.06334686279297 74.75045776367188
C 60.089141845703125 49.569793701171875 74.82402801513672
H 60.868587493896484 49.96009826660156 75.48174285888672
H 60.35905075073242 49.96449279785156 73.84227752685547
H 59.08794403076172 49.83861541748047 75.16726684570312
C 61.59796905517578 47.61370849609375 74.32428741455078
H 61.60506820678711 46.52392578125 74.25508880615234
H 61.65843963623047 47.921180725097656 73.27821350097656
H 62.459068298339844 48.038970947265625 74.8440170288086
