207
Triad, Carotenoid-Porphyrin-C60
C 46.891845703125 67.0473403930664 45.07602310180664
C 44.86309051513672 60.829078674316406 45.70541000366211
C 45.24078369140625 62.40758514404297 47.31208801269531
C 45.37644577026367 64.85161590576172 47.551849365234375
C 44.350364685058594 60.790489196777344 43.36970138549805
C 45.1639518737793 60.44379806518555 44.406986236572266
C 42.78655242919922 61.77625274658203 44.951171875
C 43.34880447387695 63.81092071533203 46.80556106567383
C 44.6420783996582 67.14691925048828 44.453006744384766
C 43.179386138916016 61.47760772705078 43.6542854309082
C 46.051429748535156 66.77105712890625 46.188514709472656
C 45.70492172241211 62.97077560424805 40.913265228271484
C 45.16804504394531 61.10234451293945 42.31568908691406
C 45.88028335571289 65.35021209716797 41.11489486694336
C 44.0163688659668 66.25360107421875 42.30112075805664
C 45.36252212524414 66.38924407958984 41.85427474975586
C 43.638938903808594 62.80583953857422 41.661563873291016
C 42.23990249633789 63.10152053833008 44.814598083496094
C 42.51312255859375 64.08314514160156 45.75157928466797
C 42.65475845336914 65.78507995605469 44.04045486450195
C 49.06294631958008 62.82339859008789 45.571990966796875
C 48.56171417236328 61.9652099609375 44.42573165893555
C 47.88752365112305 62.59716033935547 46.55832290649414
C 47.11782455444336 61.47343444824219 46.147361755371094
C 47.52299118041992 66.15998840332031 42.52090835571289
C 48.40147018432617 62.413612365722656 43.1219367980957
C 46.371063232421875 65.692138671875 47.04486846923828
C 47.01383590698242 62.88410949707031 41.37754440307617
C 46.46295166015625 60.97583770751953 42.691627502441406
C 47.20258712768555 65.2400894165039 41.565757751464844
C 47.27023696899414 63.67521667480469 47.233707427978516
C 43.787818908691406 64.11433410644531 41.224971771240234
C 43.28172302246094 65.13738250732422 41.95812225341797
C 42.71033477783203 65.42603302001953 45.35436248779297
C 42.23590087890625 63.52172088623047 43.4610710144043
C 49.290374755859375 64.30168151855469 45.14934539794922
C 48.988990783691406 64.63624572753906 43.70173645019531
C 48.417381286621094 65.34891510009766 45.794654846191406
C 48.335121154785156 65.86731719970703 43.66592788696289
C 43.70500946044922 66.6489028930664 43.560890197753906
C 47.509544372558594 61.094757080078125 44.845218658447266
C 47.544219970703125 64.97979736328125 46.856571197509766
C 48.00212097167969 66.26734924316406 44.92644119262695
C 45.9335823059082 63.545745849609375 47.649662017822266
C 46.349735260009766 66.91254425048828 42.72681427001953
C 48.678165435791016 63.69501495361328 42.7174072265625
C 47.40582275390625 61.953155517578125 42.26823043823242
C 45.804447174072266 61.34513854980469 46.509910583496094
C 46.48793029785156 60.544677734375 44.01533126831055
C 42.44548797607422 64.87320709228516 43.027828216552734
C 47.760101318359375 64.00463104248047 41.6761474609375
C 45.970542907714844 67.24436950683594 44.00741958618164
C 43.68583679199219 61.5438117980957 45.97232437133789
C 43.909873962402344 62.52256774902344 46.91183090209961
C 44.072940826416016 64.96435546875 47.14687728881836
C 44.700321197509766 66.87388610839844 45.79811096191406
C 44.78282165527344 62.09358596801758 41.450355529785156
C 45.08470153808594 64.2498779296875 40.87495040893555
C 43.659610748291016 65.99051666259766 46.21676254272461
C 42.835506439208984 62.464176177978516 42.73529815673828
C 50.41008377075195 62.38370895385742 46.137672424316406
N 51.33826446533203 63.27912139892578 46.04579544067383
C 50.821044921875 64.48235321044922 45.36094284057617
H 51.368412017822266 64.5654067993164 44.41852951049805
H 51.13938522338867 65.37714385986328 45.901920318603516
C 51.68087387084961 58.30575180053711 47.26881790161133
C 50.51384353637695 58.89140319824219 47.84853744506836
H 49.78816604614258 58.268306732177734 48.364986419677734
C 50.05785369873047 60.18484878540039 47.42415237426758
H 49.15959548950195 60.688663482666016 47.771827697753906
C 50.80493927001953 60.943939208984375 46.54521942138672
C 52.45054626464844 59.136322021484375 46.39118194580078
H 53.3131217956543 58.8437614440918 45.797935485839844
C 52.075172424316406 60.45515060424805 46.14714431762695
H 52.64994430541992 61.191280364990234 45.590980529785156
C 51.99547576904297 56.884620666503906 47.55076599121094
C 51.030677795410156 56.0694465637207 48.296024322509766
C 50.42918395996094 56.21506118774414 49.5351676940918
H 50.55823516845703 57.06366729736328 50.19881820678711
C 49.62973403930664 55.10828399658203 49.864234924316406
H 49.02151870727539 54.9167366027832 50.74208450317383
C 49.783592224121094 54.23108673095703 48.81427764892578
N 50.66526794433594 54.81096267700195 47.949424743652344
H 51.059349060058594 54.34992218017578 47.14055633544922
C 49.18618392944336 52.941104888916016 48.4974365234375
H 48.28523254394531 52.68205261230469 49.051597595214844
C 49.55694580078125 52.02745056152344 47.538883209228516
C 48.655982971191406 51.378631591796875 46.702510833740234
H 47.59847640991211 51.61683654785156 46.655948638916016
C 49.423831939697266 50.61721420288086 45.8378791809082
H 49.06179428100586 50.0623779296875 44.97863006591797
C 50.82675552368164 50.77983093261719 46.23627471923828
N 50.859779357910156 51.65883255004883 47.303382873535156
C 52.037513732910156 50.19287872314453 45.758644104003906
C 53.28936004638672 50.74637985229492 45.99626541137695
C 54.556663513183594 50.10589599609375 46.2010612487793
H 54.771236419677734 49.047611236572266 46.09516143798828
C 55.52662658691406 51.07553482055664 46.5198860168457
H 56.6021728515625 51.002479553222656 46.642738342285156
C 54.89714813232422 52.367156982421875 46.581417083740234
N 53.63296890258789 52.06105422973633 46.25472640991211
H 52.840118408203125 52.680362701416016 46.15486526489258
C 55.44272232055664 53.6174430847168 46.76505661010742
H 56.52783966064453 53.6297492980957 46.85613250732422
C 54.79945755004883 54.905799865722656 46.97076416015625
C 55.47171401977539 56.11477279663086 47.259315490722656
H 56.54362106323242 56.26172637939453 47.340843200683594
C 54.429847717285156 57.01177215576172 47.5460205078125
H 54.57284927368164 58.010459899902344 47.94526672363281
C 53.273956298828125 56.33973693847656 47.25171661376953
N 53.49703598022461 55.04373550415039 46.879852294921875
C 51.96331787109375 46.10678482055664 44.026649475097656
C 53.00162887573242 46.976600646972656 43.71263885498047
H 53.749019622802734 46.65298843383789 42.99273681640625
C 53.02088165283203 48.29625701904297 44.25129699707031
H 53.839569091796875 48.884376525878906 43.844547271728516
C 52.00247573852539 48.85432815551758 45.05564498901367
C 50.978309631347656 46.63288497924805 44.849464416503906
H 50.16643142700195 45.971073150634766 45.1400260925293
C 50.981040954589844 47.9559211730957 45.336971282958984
H 50.30787658691406 48.19182205200195 46.15719985961914
N 51.894081115722656 44.722564697265625 43.7094841003418
H 51.667137145996094 44.111061096191406 44.479312896728516
C 52.26081848144531 44.15349197387695 42.5391960144043
O 52.42882537841797 44.918113708496094 41.566463470458984
C 52.348060607910156 42.68485641479492 42.45869827270508
C 52.161136627197266 41.881126403808594 43.573341369628906
H 52.18358612060547 42.326168060302734 44.56480407714844
C 51.97104263305664 40.505252838134766 43.34322738647461
C 52.048160552978516 39.83473587036133 42.11444854736328
H 52.03706359863281 38.74857711791992 42.07321548461914
C 52.3632698059082 40.64851760864258 41.019351959228516
H 52.537803649902344 40.229408264160156 40.031700134277344
C 52.442928314208984 42.04790115356445 41.225833892822266
H 52.68421173095703 42.603660583496094 40.32334518432617
C 51.74208450317383 39.6191520690918 44.5130500793457
H 51.61531066894531 40.18048858642578 45.43758010864258
C 51.652854919433594 38.28287124633789 44.74595260620117
H 51.746368408203125 37.56348419189453 43.93375778198242
C 51.384315490722656 37.666561126708984 46.03175735473633
C 52.08902359008789 38.332576751708984 47.2181396484375
H 53.02178955078125 38.852943420410156 46.99092483520508
H 52.300506591796875 37.712772369384766 48.09196853637695
H 51.42081069946289 39.10989761352539 47.59461975097656
C 50.547054290771484 36.61966323852539 46.20669174194336
H 50.02667999267578 36.257442474365234 45.321292877197266
C 50.14650344848633 35.987064361572266 47.474185943603516
H 50.280555725097656 36.55925369262695 48.3910026550293
C 49.4390983581543 34.88869094848633 47.511863708496094
H 49.21882247924805 34.45928955078125 46.53563690185547
C 48.8235969543457 34.31935119628906 48.716392517089844
C 47.92362976074219 33.10710525512695 48.34611892700195
H 48.23722457885742 32.305091857910156 49.017601013183594
H 46.87931442260742 33.414920806884766 48.43050003051758
H 48.02978515625 32.799964904785156 47.303592681884766
C 48.920135498046875 34.86351776123047 49.92831039428711
H 49.60758590698242 35.656551361083984 50.21889114379883
C 48.23151779174805 34.281925201416016 51.099761962890625
H 47.52980422973633 33.4644660949707 50.94078826904297
C 48.47792434692383 34.66825485229492 52.40359115600586
H 49.09003829956055 35.559303283691406 52.535011291503906
C 48.005279541015625 33.89963150024414 53.57749938964844
H 47.60763931274414 32.895999908447266 53.434207916259766
C 48.03068542480469 34.31240463256836 54.86675262451172
C 48.57577896118164 35.678871154785156 55.22386932373047
H 48.23300552368164 36.166717529296875 56.13873291015625
H 49.64389419555664 35.553646087646484 55.41339874267578
H 48.27897644042969 36.37211608886719 54.43406677246094
C 47.72954177856445 33.50102996826172 56.108089447021484
H 47.721824645996094 34.06825637817383 57.03766632080078
C 47.4832878112793 32.206172943115234 56.17542266845703
H 47.51465606689453 31.591487884521484 55.27703857421875
C 47.14549255371094 31.408761978149414 57.3233642578125
H 46.65771484375 31.94366455078125 58.13692092895508
C 47.31989669799805 30.12160301208496 57.564300537109375
C 47.67435836791992 29.252429962158203 56.41197967529297
H 46.85603713989258 29.328035354614258 55.69288635253906
H 48.64342498779297 29.59188461303711 56.04030227661133
H 47.86103439331055 28.235031127929688 56.762001037597656
C 46.907432556152344 29.498802185058594 58.87123489379883
H 46.901939392089844 28.41667938232422 58.993289947509766
C 46.30808639526367 30.154998779296875 59.90458297729492
H 46.45124816894531 31.231521606445312 59.9853515625
C 45.90814971923828 29.477867126464844 61.144161224365234
C 45.027748107910156 28.418243408203125 61.24646759033203
C 44.23143005371094 27.867265701293945 60.12116241455078
H 44.722049713134766 26.956687927246094 59.771018981933594
H 43.22083282470703 27.776391983032227 60.5247802734375
H 44.21726989746094 28.523582458496094 59.24851989746094
C 44.602455139160156 27.697124481201172 62.5008544921875
H 44.86044692993164 26.660017013549805 62.27654266357422
H 43.540714263916016 27.698734283447266 62.756126403808594
C 45.32356262207031 28.17340087890625 63.79913330078125
H 45.2734260559082 27.52409553527832 64.67568969726562
H 44.706764221191406 28.99454689025879 64.1702651977539
C 46.699527740478516 28.849931716918945 63.4742431640625
H 47.291725158691406 29.2511043548584 64.29936218261719
H 47.2562255859375 28.02718734741211 63.020751953125
C 46.576019287109375 30.032752990722656 62.395538330078125
C 45.76519775390625 31.16626739501953 63.04425811767578
H 45.7290153503418 32.02893829345703 62.37571716308594
H 44.744197845458984 30.87476921081543 63.29931640625
H 46.17516326904297 31.372751235961914 64.03509521484375
C 48.03096389770508 30.438390731811523 62.222084045410156
H 48.09217071533203 31.345853805541992 61.61774444580078
H 48.45405578613281 30.698400497436523 63.19463348388672
H 48.65102767944336 29.668149948120117 61.75872039794922
