207
Triad, Carotenoid-Porphyrin-C60
C 55.23729705810547 48.001319885253906 41.677268981933594
C 51.14631652832031 44.651512145996094 37.961002349853516
C 51.41970443725586 46.87884521484375 38.05751419067383
C 53.11653518676758 48.533477783203125 38.798095703125
C 52.32188034057617 42.71031188964844 38.4891242980957
C 51.18992614746094 43.499366760253906 38.6630744934082
C 53.22137451171875 44.2666015625 36.93540573120117
C 53.61833190917969 46.97474670410156 37.00539016723633
C 56.67918395996094 47.20319366455078 40.083858489990234
C 53.30117416381836 43.030357360839844 37.61677551269531
C 54.91474533081055 48.587196350097656 40.454158782958984
C 54.431819915771484 42.14020538330078 41.2052001953125
C 52.640872955322266 42.079742431640625 39.66004180908203
C 56.114044189453125 43.74183654785156 42.029747009277344
C 57.143306732177734 44.874298095703125 40.18290328979492
C 56.87534713745117 44.770240783691406 41.5396842956543
C 55.00355529785156 42.21179962158203 39.13675308227539
C 54.507843017578125 44.761962890625 36.82915496826172
C 54.69064712524414 46.111167907714844 36.827880859375
C 56.69056701660156 45.75286102294922 38.20954895019531
C 50.86411666870117 46.370147705078125 42.26453399658203
C 50.82994079589844 44.828208923339844 42.01787185668945
C 50.721946716308594 46.845603942871094 40.807334899902344
C 50.34685134887695 45.800743103027344 39.98338317871094
C 55.45405578613281 45.58723449707031 43.032630920410156
C 51.85355758666992 44.06752014160156 42.51947784423828
C 53.57025146484375 48.81810760498047 40.091068267822266
C 53.59151840209961 42.643043518066406 42.21859359741211
C 51.77858352661133 42.60596466064453 40.63523864746094
C 55.26993942260742 44.22264099121094 42.978294372558594
C 51.59028244018555 47.82127380371094 40.32155227661133
C 56.14027786254883 42.68964385986328 39.81843948364258
C 56.914485931396484 43.764320373535156 39.3373908996582
C 55.769596099853516 46.57012176513672 37.583805084228516
C 55.36276626586914 43.860321044921875 37.41512680053711
C 52.04277038574219 46.95764923095703 43.07364273071289
C 53.09619140625 45.944969177246094 43.45022201538086
C 52.902923583984375 47.947608947753906 42.275360107421875
C 54.36482238769531 46.44969940185547 43.233680725097656
C 57.15342330932617 46.045860290527344 39.48094940185547
C 50.402286529541016 44.62261199951172 40.69615173339844
C 52.579837799072266 48.41517639160156 41.00859451293945
C 54.27592086791992 47.71403503417969 42.57224655151367
C 51.842403411865234 47.91819763183594 38.93620300292969
C 56.47073745727539 45.93834686279297 42.172119140625
C 52.95170974731445 44.56999969482422 43.23661422729492
C 52.22015380859375 42.83015441894531 41.93189239501953
C 50.69942855834961 45.82184600830078 38.62747573852539
C 50.86714553833008 43.499488830566406 39.99732208251953
C 56.45927429199219 44.35619354248047 38.11799240112305
C 53.9825439453125 43.72541046142578 43.0251350402832
C 56.32294845581055 47.17884826660156 41.48694610595703
C 52.132781982421875 45.11473846435547 37.04757308959961
C 52.297237396240234 46.47942352294922 37.10593032836914
C 54.01028060913086 48.03251647949219 37.8616828918457
C 55.774906158447266 48.010833740234375 39.508750915527344
C 53.97772979736328 41.87162780761719 39.996219635009766
C 55.71757888793945 42.70442199707031 41.15082931518555
C 55.34874725341797 47.72765350341797 38.18885803222656
C 54.62541961669922 42.798362731933594 37.91059494018555
C 49.68015670776367 46.888404846191406 43.100868225097656
N 49.93947982788086 47.34092712402344 44.225669860839844
C 51.408424377441406 47.51795196533203 44.47747802734375
H 51.75838088989258 46.939849853515625 45.3365364074707
H 51.55127716064453 48.57868194580078 44.69904708862305
C 45.49935531616211 46.541282653808594 42.0773811340332
C 46.17661666870117 45.41387939453125 42.696903228759766
H 45.6311149597168 44.494606018066406 42.89420700073242
C 47.56098937988281 45.546417236328125 43.06710433959961
H 48.071136474609375 44.757850646972656 43.61434555053711
C 48.31354904174805 46.66178894042969 42.71358108520508
C 46.232242584228516 47.719451904296875 41.78334426879883
H 45.79608154296875 48.62309265136719 41.365291595458984
C 47.611175537109375 47.754127502441406 42.097129821777344
H 48.252323150634766 48.58722686767578 41.820648193359375
C 44.005584716796875 46.549354553222656 41.84932327270508
C 43.24408721923828 45.3731689453125 42.20428466796875
C 43.37450408935547 44.00813293457031 42.02079772949219
H 44.17647933959961 43.67688751220703 41.369388580322266
C 42.34048843383789 43.349449157714844 42.6973762512207
H 42.090660095214844 42.294456481933594 42.739925384521484
C 41.47582244873047 44.28819274902344 43.187744140625
N 42.035308837890625 45.45774841308594 42.91038131713867
H 41.581703186035156 46.34235382080078 43.09434127807617
C 40.1824951171875 44.243370056152344 43.79500961303711
H 39.68510818481445 43.29167175292969 43.613929748535156
C 39.38734436035156 45.22125244140625 44.2911376953125
C 38.097225189208984 44.98584747314453 44.8065071105957
H 37.69181442260742 43.98298645019531 44.89098358154297
C 37.68613052368164 46.21183776855469 45.265220642089844
H 36.71805191040039 46.400108337402344 45.71754455566406
C 38.704002380371094 47.17871856689453 44.94258117675781
N 39.77771759033203 46.561859130859375 44.39020538330078
C 38.718902587890625 48.626380920410156 45.102996826171875
C 38.954322814941406 49.50804901123047 44.06906509399414
C 38.261512756347656 50.60546875 43.57455062866211
H 37.32689666748047 51.009124755859375 43.94975662231445
C 38.833805084228516 50.96052551269531 42.347068786621094
H 38.49090576171875 51.649169921875 41.58195114135742
C 39.95296859741211 50.14900207519531 42.01959991455078
N 39.93842315673828 49.38550567626953 43.1394157409668
H 40.76945114135742 48.82255554199219 43.26025390625
C 40.766693115234375 50.055633544921875 40.96769714355469
H 40.48988342285156 50.69849395751953 40.1334114074707
C 41.948272705078125 49.22100830078125 40.84710693359375
C 42.833091735839844 49.18341827392578 39.7503776550293
H 42.80187225341797 49.85552215576172 38.89918518066406
C 43.69810104370117 48.10459899902344 40.021812438964844
H 44.53832244873047 47.759910583496094 39.42814254760742
C 43.32236099243164 47.63232421875 41.227054595947266
N 42.29446792602539 48.280853271484375 41.77621841430664
C 38.13566207885742 50.09989929199219 49.08335876464844
C 38.44570541381836 50.98377227783203 48.03435516357422
H 38.32059860229492 52.05180358886719 48.19318389892578
C 38.68922805786133 50.50260925292969 46.74056625366211
H 38.88508987426758 51.231910705566406 45.95869445800781
C 38.57720184326172 49.10675048828125 46.493614196777344
C 38.173587799072266 48.71502685546875 48.84529495239258
H 37.98814392089844 48.050628662109375 49.68538284301758
C 38.31753158569336 48.23796081542969 47.52872848510742
H 38.20101547241211 47.18077850341797 47.304351806640625
N 37.887969970703125 50.5845947265625 50.3284912109375
H 38.5977897644043 51.201507568359375 50.69407653808594
C 36.826175689697266 50.41300964355469 51.164405822753906
O 35.73862838745117 50.03034210205078 50.752315521240234
C 36.95579147338867 50.8265380859375 52.55205535888672
C 38.10490417480469 50.779693603515625 53.2938117980957
H 38.99152755737305 50.257789611816406 52.942989349365234
C 38.232025146484375 51.40857696533203 54.493080139160156
C 37.21670913696289 52.133941650390625 55.03919982910156
H 37.42573165893555 52.69530487060547 55.946250915527344
C 35.99275588989258 52.122161865234375 54.35753631591797
H 35.180660247802734 52.69731140136719 54.794883728027344
C 35.86472702026367 51.47785186767578 53.113685607910156
H 34.95587158203125 51.550254821777344 52.52181625366211
C 39.56086349487305 51.29827880859375 55.09645080566406
H 40.2588005065918 50.66600036621094 54.54961013793945
C 40.09220504760742 51.970176696777344 56.18000030517578
H 39.44139099121094 52.584373474121094 56.80057907104492
C 41.501304626464844 51.86378479003906 56.50425720214844
C 42.46806716918945 51.281211853027344 55.49512481689453
H 42.24445343017578 51.3338623046875 54.42756652832031
H 42.60947799682617 50.216217041015625 55.69072723388672
H 43.44852066040039 51.75689697265625 55.56516647338867
C 42.004886627197266 52.29991149902344 57.664039611816406
H 41.34548568725586 52.7568359375 58.400474548339844
C 43.42802047729492 52.39662170410156 58.03749084472656
H 44.228580474853516 52.019630432128906 57.40274429321289
C 43.85557556152344 53.156944274902344 59.076087951660156
H 43.049766540527344 53.620140075683594 59.643577575683594
C 45.1732177734375 53.36286926269531 59.60441970825195
C 45.441688537597656 54.529380798339844 60.52849197387695
H 45.73446273803711 55.332862854003906 59.849403381347656
H 44.568485260009766 54.76525115966797 61.140323638916016
H 46.18421936035156 54.23463439941406 61.2729606628418
C 46.1705322265625 52.60224151611328 59.19135665893555
H 45.962249755859375 51.73509216308594 58.56639099121094
C 47.54585647583008 52.7080078125 59.548980712890625
H 47.95585250854492 53.66967010498047 59.85398864746094
C 48.4571533203125 51.713783264160156 59.43313980102539
H 48.09642028808594 50.71320343017578 59.199424743652344
C 49.88459014892578 51.85570526123047 59.66325759887695
H 50.33473587036133 52.845909118652344 59.716026306152344
C 50.86481857299805 50.948219299316406 59.861351013183594
C 50.52239990234375 49.531288146972656 59.634944915771484
H 51.38263702392578 48.86597442626953 59.7340202331543
H 49.72431564331055 49.26435089111328 60.33083724975586
H 50.272552490234375 49.26112365722656 58.606815338134766
C 52.24638366699219 51.21971893310547 60.098289489746094
H 52.570125579833984 52.14611053466797 59.62614440917969
C 53.236934661865234 50.49175262451172 60.7314453125
H 53.08066940307617 49.4837646484375 61.112857818603516
C 54.5987434387207 50.890525817871094 60.61765670776367
H 54.86357116699219 51.73119354248047 59.97807312011719
C 55.729251861572266 50.39593505859375 61.23758316040039
C 55.61857223510742 49.356727600097656 62.37041473388672
H 54.56790542602539 49.235145568847656 62.64205551147461
H 55.95650100708008 48.374717712402344 62.03288269042969
H 56.215850830078125 49.790069580078125 63.17536544799805
C 57.11093521118164 50.894142150878906 60.99056625366211
H 57.7388916015625 50.63526153564453 61.84178161621094
C 57.621498107910156 51.57245635986328 59.91053009033203
H 57.082427978515625 51.822410583496094 58.9979248046875
C 58.985755920410156 52.054405212402344 59.75116729736328
C 60.0292854309082 51.21214294433594 59.58039855957031
C 59.962730407714844 49.72093200683594 59.701297760009766
H 59.28557205200195 49.280677795410156 58.96638107299805
H 60.844886779785156 49.08018493652344 59.64042282104492
H 59.64434814453125 49.40800476074219 60.697879791259766
C 61.44620895385742 51.60205841064453 59.44561767578125
H 61.76849365234375 51.422325134277344 58.4178581237793
H 62.00551223754883 50.860595703125 60.019962310791016
C 61.68149185180664 53.09581756591797 59.737735748291016
H 62.64533996582031 53.352020263671875 59.292964935302734
H 61.707035064697266 53.30077362060547 60.81002426147461
C 60.53987503051758 53.94725036621094 59.04050827026367
H 60.77946090698242 55.01133728027344 59.0932502746582
H 60.48345947265625 53.69763946533203 57.978919982910156
C 59.18497848510742 53.58088684082031 59.67082214355469
C 59.07430648803711 54.19761657714844 61.069210052490234
H 59.30422592163086 55.26167297363281 60.9832649230957
H 58.02391052246094 54.08087921142578 61.343990325927734
H 59.67472839355469 53.68431854248047 61.82319259643555
C 58.17866134643555 54.30500793457031 58.74838638305664
H 58.51016616821289 55.296295166015625 58.43228530883789
H 57.996524810791016 53.667236328125 57.880897521972656
H 57.27631378173828 54.40691375732422 59.35489273071289
