207
Triad, Carotenoid-Porphyrin-C60
C 38.444583892822266 50.52382278442383 40.0878791809082
C 42.47832489013672 48.770023345947266 44.788917541503906
C 41.56083297729492 47.60811233520508 43.118099212646484
C 40.54671859741211 47.8922233581543 40.956336975097656
C 42.89334487915039 51.070377349853516 45.22097396850586
C 42.26527786254883 49.864864349365234 45.59274673461914
C 43.97639846801758 50.08267593383789 43.33304214477539
C 42.847816467285156 48.53416061401367 41.266963958740234
C 40.31261444091797 51.495052337646484 39.307498931884766
C 43.76450729370117 51.18991470336914 44.14163589477539
C 39.312870025634766 49.5560417175293 39.71806335449219
C 40.71502685546875 53.7743034362793 44.37582015991211
C 41.994895935058594 52.09798049926758 45.551116943359375
C 39.71844482421875 54.1414680480957 42.180992126464844
C 41.227237701416016 53.449161529541016 40.372005462646484
C 39.928375244140625 53.749568939208984 40.80018997192383
C 42.794734954833984 53.35689926147461 43.629730224609375
C 44.00127029418945 50.55001449584961 41.988861083984375
C 43.48134994506836 49.761661529541016 40.950008392333984
C 42.654075622558594 51.822086334228516 39.900962829589844
C 37.827247619628906 48.95822525024414 44.55003356933594
C 38.58589553833008 49.909488677978516 45.43323516845703
C 38.99457931518555 48.13557815551758 44.083560943603516
C 40.14435958862305 48.233646392822266 44.872310638427734
C 38.05556106567383 52.773494720458984 41.69981384277344
C 38.494300842285156 51.29233932495117 45.39493942260742
C 39.33877182006836 48.443599700927734 40.622283935546875
C 39.52133560180664 53.26595687866211 44.873382568359375
C 40.77872848510742 51.504207611083984 46.08964538574219
C 38.544395446777344 53.557010650634766 42.71416473388672
C 39.19682312011719 47.71517562866211 42.754337310791016
C 42.05967330932617 53.89432144165039 42.58936309814453
C 42.334102630615234 53.53651809692383 41.26535415649414
C 42.821983337402344 50.4107780456543 39.91619873046875
C 43.87154006958008 51.90817642211914 41.988121032714844
C 37.04142379760742 49.588932037353516 43.34404754638672
C 37.32249069213867 51.11568069458008 43.32296371459961
C 37.50966262817383 49.26955032348633 41.95219802856445
C 37.417510986328125 51.50064468383789 41.98472595214844
C 41.436485290527344 52.31525802612305 39.5616340637207
C 39.87871551513672 49.37423324584961 45.63728713989258
C 38.46891784667969 48.31826400756836 41.701236724853516
C 37.59336471557617 50.4327278137207 41.16911315917969
C 40.46393585205078 47.43740463256836 42.26259231567383
C 38.85213851928711 52.88649368286133 40.53813934326172
C 37.85006332397461 51.90156173706055 44.285606384277344
C 39.561641693115234 52.18877029418945 45.75546646118164
C 41.4222412109375 47.88358688354492 44.49619674682617
C 40.927345275878906 50.15200424194336 45.99903106689453
C 43.23067092895508 52.549503326416016 40.93302917480469
C 38.42714309692383 53.12895584106445 44.011287689208984
C 39.01457595825195 51.7075309753418 39.752498626708984
C 43.32392120361328 48.85842514038086 43.63203430175781
C 42.76845169067383 48.137142181396484 42.619354248046875
C 41.77935791015625 48.4284782409668 40.40360641479492
C 40.51790237426758 50.13547134399414 39.25023651123047
C 41.967002868652344 53.24483871459961 44.74140167236328
C 40.7691535949707 54.18125534057617 43.042640686035156
C 41.72800827026367 49.57160568237305 39.58229064941406
C 43.7014274597168 52.32817459106445 43.300140380859375
C 36.75966262817383 48.11154556274414 45.21736145019531
N 35.6053352355957 48.3123664855957 44.70235061645508
C 35.56103515625 49.35197830200195 43.63739013671875
H 35.04502487182617 50.2335319519043 44.02630615234375
H 35.03671646118164 48.89273452758789 42.79546356201172
C 37.39265060424805 44.91032791137695 48.10638427734375
C 37.4160270690918 44.63692855834961 46.74192428588867
H 37.652099609375 43.65029525756836 46.351539611816406
C 37.21702194213867 45.69314193725586 45.74739074707031
H 37.267608642578125 45.48794174194336 44.68113708496094
C 37.00126266479492 46.98460006713867 46.21367263793945
C 37.18989944458008 46.23691940307617 48.52043533325195
H 37.24960708618164 46.5693244934082 49.55364227294922
C 36.987186431884766 47.25876235961914 47.5737419128418
H 36.831756591796875 48.30271530151367 47.833683013916016
C 37.64246368408203 43.84328079223633 49.103607177734375
C 37.84162902832031 42.494625091552734 48.5108528137207
C 37.068145751953125 41.69767379760742 47.75367736816406
H 36.12139129638672 41.94680404663086 47.2859001159668
C 37.78831481933594 40.478511810302734 47.55031967163086
H 37.54653549194336 39.747196197509766 46.786155700683594
C 38.90894317626953 40.45207595825195 48.33475112915039
N 38.86814880371094 41.65828323364258 48.96195602416992
H 39.576019287109375 41.78792190551758 49.67205047607422
C 39.89444351196289 39.460697174072266 48.59917068481445
H 39.74434280395508 38.541141510009766 48.03541946411133
C 40.87445068359375 39.39005661010742 49.58139419555664
C 41.63206481933594 38.1988639831543 49.80812454223633
H 41.44133377075195 37.294246673583984 49.2402229309082
C 42.52660369873047 38.5783576965332 50.744171142578125
H 43.26009750366211 37.9897575378418 51.285240173339844
C 42.2325553894043 39.9005012512207 51.17357635498047
N 41.240047454833984 40.44428634643555 50.391845703125
C 42.90434646606445 40.67769241333008 52.175025939941406
C 42.190364837646484 41.49782180786133 53.03459548950195
C 42.33321762084961 41.745121002197266 54.45671463012695
H 42.951385498046875 41.16983413696289 55.13799285888672
C 41.340206146240234 42.671016693115234 54.81317138671875
H 41.06587600708008 43.01407241821289 55.80528259277344
C 40.59152603149414 42.97018814086914 53.66805648803711
N 41.21269607543945 42.38699722290039 52.66168212890625
H 40.89936065673828 42.4754753112793 51.70454025268555
C 39.40869903564453 43.73210525512695 53.62028503417969
H 39.11051940917969 44.11129379272461 54.596622467041016
C 38.58289337158203 44.07343673706055 52.47045135498047
C 37.34313201904297 44.74013137817383 52.46340560913086
H 36.77894592285156 45.055606842041016 53.334835052490234
C 36.91880798339844 44.725223541259766 51.19989013671875
H 35.98895263671875 45.12851333618164 50.812660217285156
C 37.82590103149414 44.090633392333984 50.49024963378906
N 38.8562126159668 43.76066970825195 51.20286560058594
C 47.22846603393555 40.44522476196289 52.36528778076172
C 46.537967681884766 41.20468521118164 53.33061599731445
H 47.14600372314453 41.68307876586914 54.09415817260742
C 45.13072204589844 41.32075881958008 53.29053497314453
H 44.653812408447266 42.06967544555664 53.91762924194336
C 44.38939666748047 40.61848831176758 52.2950439453125
C 46.50890350341797 39.868038177490234 51.35563659667969
H 47.047420501708984 39.30514144897461 50.59754180908203
C 45.1425895690918 39.99422073364258 51.30795669555664
H 44.577030181884766 39.634281158447266 50.45229721069336
N 48.63692855834961 40.2487678527832 52.54376220703125
H 49.02021408081055 39.31550216674805 52.53041076660156
C 49.58191680908203 41.29304885864258 52.42326736450195
O 49.21898651123047 42.42939376831055 52.305606842041016
C 51.0344123840332 41.0048942565918 52.52132797241211
C 51.969947814941406 42.06242752075195 52.37466812133789
H 51.52034378051758 43.047977447509766 52.46477508544922
C 53.33768844604492 41.84843063354492 52.387271881103516
C 53.864620208740234 40.58615493774414 52.60759735107422
H 54.93817138671875 40.4371452331543 52.52480697631836
C 53.0417594909668 39.490177154541016 52.74235153198242
H 53.497947692871094 38.55887985229492 53.06815719604492
C 51.61421203613281 39.68953323364258 52.602745056152344
H 50.961151123046875 38.82955551147461 52.72731018066406
C 54.19615936279297 43.02384567260742 52.151893615722656
H 53.630496978759766 43.941524505615234 51.99760437011719
C 55.527503967285156 43.06142807006836 52.121280670166016
H 56.070247650146484 42.17721176147461 52.45221710205078
C 56.37024688720703 44.28728103637695 51.96269607543945
C 57.868690490722656 44.11687088012695 51.934627532958984
H 58.15989303588867 43.067691802978516 51.85160827636719
H 58.269901275634766 44.45134353637695 52.89359664916992
H 58.324859619140625 44.71908950805664 51.146148681640625
C 55.80133056640625 45.52103805541992 51.89091873168945
H 54.720733642578125 45.64451217651367 51.945613861083984
C 56.49338912963867 46.85151290893555 51.8535041809082
H 57.552242279052734 46.81108474731445 51.60227584838867
C 55.84168243408203 47.95364761352539 51.75450897216797
H 54.75288009643555 47.94215774536133 51.737449645996094
C 56.37371826171875 49.2919807434082 51.59303283691406
C 55.44178009033203 50.41189956665039 51.26689910888672
H 55.10532760620117 50.86263656616211 52.20289611816406
H 55.95465850830078 51.147403717041016 50.64363098144531
H 54.59678649902344 49.940677642822266 50.76054382324219
C 57.71637725830078 49.47676467895508 51.487152099609375
H 58.35112762451172 48.59218978881836 51.51054000854492
C 58.507301330566406 50.762943267822266 51.234169006347656
H 57.96758270263672 51.68583297729492 51.02703094482422
C 59.78590774536133 50.860897064208984 51.28594970703125
H 60.401676177978516 49.998416900634766 51.536685943603516
C 60.50912857055664 52.082462310791016 51.073917388916016
H 60.001651763916016 52.98049545288086 51.4230842590332
C 61.80118179321289 52.18277359008789 50.77741622924805
C 62.603641510009766 50.9931526184082 50.56112289428711
H 61.91532516479492 50.31113052368164 50.0576171875
H 63.55259323120117 51.19968032836914 50.06181716918945
H 62.96284103393555 50.497066497802734 51.46519088745117
C 62.497100830078125 53.449771881103516 50.89840316772461
H 61.747066497802734 54.22261428833008 51.05988311767578
C 63.852928161621094 53.64522171020508 51.113494873046875
H 64.5465087890625 52.8155403137207 51.24197006225586
C 64.4378662109375 54.92918014526367 51.219085693359375
H 63.768123626708984 55.7585563659668 51.44157791137695
C 65.76416778564453 55.27399826049805 51.09767150878906
C 66.80069732666016 54.209964752197266 50.68819046020508
H 66.31262969970703 53.49428176879883 50.02332305908203
H 67.75247192382812 54.626773834228516 50.35223388671875
H 66.90483093261719 53.58189010620117 51.57540512084961
C 66.3221206665039 56.53175735473633 51.40903091430664
H 67.40438079833984 56.62662124633789 51.33393859863281
C 65.6309814453125 57.68351364135742 51.6742057800293
H 64.56373596191406 57.53615188598633 51.832916259765625
C 66.14126586914062 58.9848518371582 52.09429931640625
C 67.06278228759766 59.60905075073242 51.31640625
C 67.47560119628906 59.16519546508789 49.920997619628906
H 68.41170501708984 58.61066818237305 50.014076232910156
H 66.7309341430664 58.47429275512695 49.5202522277832
H 67.66458892822266 59.98881149291992 49.22932815551758
C 67.68035888671875 60.93619155883789 51.77177047729492
H 67.26093292236328 61.74885177612305 51.175010681152344
H 68.74629974365234 60.91659927368164 51.535457611083984
C 67.58148193359375 61.082698822021484 53.29329299926758
H 67.88445281982422 62.01511001586914 53.77421188354492
H 68.24659729003906 60.30581283569336 53.676090240478516
C 66.12769317626953 60.94644546508789 53.70466995239258
H 65.97468566894531 61.100337982177734 54.7748908996582
H 65.47779083251953 61.666011810302734 53.202362060546875
C 65.60053253173828 59.55056381225586 53.399566650390625
C 66.06940460205078 58.69865036010742 54.60569381713867
H 65.89128875732422 59.06783676147461 55.61783218383789
H 65.6258316040039 57.719242095947266 54.41472244262695
H 67.15162658691406 58.60468673706055 54.4941520690918
C 64.10836029052734 59.47591018676758 53.70160675048828
H 63.741455078125 58.44853591918945 53.65328598022461
H 63.91487121582031 59.80794143676758 54.723751068115234
H 63.51844787597656 60.13621139526367 53.0624885559082
