207
Triad, Carotenoid-Porphyrin-C60
C 43.72860336303711 33.200801849365234 51.67225646972656
C 38.60749816894531 36.94438171386719 52.07972717285156
C 39.673152923583984 36.2286376953125 50.1927490234375
C 41.14604949951172 34.50539779663086 49.58312225341797
C 38.390350341796875 36.29759979248047 54.434959411621094
C 38.8121223449707 37.235225677490234 53.4361572265625
C 37.7013053894043 34.77378463745117 52.68126678466797
C 39.0144157409668 33.91667938232422 50.39136505126953
C 42.26446533203125 31.539945602416992 52.102195739746094
C 37.833045959472656 35.06818389892578 54.03871154785156
C 42.827064514160156 33.09675598144531 50.596160888671875
C 41.08901596069336 34.917789459228516 56.47406005859375
C 39.347068786621094 36.29228210449219 55.4185791015625
C 42.53998947143555 33.18046951293945 55.808326721191406
C 41.36963653564453 31.522253036499023 54.414710998535156
C 42.539337158203125 32.160247802734375 54.822898864746094
C 39.07066345214844 33.92387771606445 55.72747802734375
C 37.94894790649414 33.43181610107422 52.50274658203125
C 38.59713363647461 32.98054122924805 51.356895446777344
C 39.94185256958008 31.544496536254883 52.68994903564453
C 43.159950256347656 37.8493537902832 52.06304168701172
C 42.31256866455078 38.05814743041992 53.321983337402344
C 42.05999755859375 37.56734848022461 51.06556701660156
C 40.8129997253418 37.82248306274414 51.60773468017578
C 44.12163162231445 33.75287628173828 54.349815368652344
C 42.63270950317383 37.39913558959961 54.52880096435547
C 42.43572235107422 34.340328216552734 50.035545349121094
C 41.97148895263672 35.92574691772461 56.14949035644531
C 40.233612060546875 37.24848937988281 55.11334228515625
C 43.46159362792969 34.186954498291016 55.515098571777344
C 42.08020782470703 36.50859451293945 50.163848876953125
C 40.058494567871094 33.02986526489258 55.82329559326172
C 40.148521423339844 31.96656036376953 54.88691711425781
C 39.55187225341797 32.027122497558594 51.44288635253906
C 38.23451232910156 32.882808685302734 53.744667053222656
C 44.32998275756836 36.76324462890625 52.253028869628906
C 44.399532318115234 36.038761138916016 53.589744567871094
C 44.071353912353516 35.613136291503906 51.318687438964844
C 44.548397064208984 34.65869140625 53.384010314941406
C 41.270835876464844 31.250612258911133 53.04974365234375
C 41.00472640991211 38.12485122680664 52.987953186035156
C 43.03831481933594 35.5324592590332 50.345298767089844
C 44.31032180786133 34.43729782104492 52.064239501953125
C 40.896602630615234 35.860015869140625 49.723594665527344
C 43.52377700805664 32.50413131713867 53.96857452392578
C 43.62174606323242 36.45400619506836 54.64653778076172
C 41.61233901977539 37.059417724609375 55.477577209472656
C 39.572391510009766 37.27413558959961 51.155029296875
C 39.973262786865234 37.76890563964844 53.844200134277344
C 39.263187408447266 31.913005828857422 53.81022644042969
C 43.182430267333984 35.5800895690918 55.59137725830078
C 43.37741470336914 32.22516632080078 52.635963439941406
C 38.09348678588867 35.676475524902344 51.70967102050781
C 38.720664978027344 35.26888656616211 50.58350372314453
C 40.19146728515625 33.538272857666016 49.87433624267578
C 41.90845489501953 32.1269645690918 50.833091735839844
C 39.71666717529297 35.08653259277344 56.096641540527344
C 41.29222106933594 33.55840301513672 56.260223388671875
C 40.572166442871094 32.346717834472656 50.50682830810547
C 38.11678695678711 33.87621307373047 54.720909118652344
C 43.921566009521484 39.08663558959961 51.64558410644531
N 45.237464904785156 38.907020568847656 51.590126037597656
C 45.68128204345703 37.53440475463867 51.92546081542969
H 46.28105926513672 37.545406341552734 52.839134216308594
H 46.27735137939453 37.17919158935547 51.080963134765625
C 42.055625915527344 42.97077178955078 51.06018829345703
C 42.44975662231445 42.51279067993164 52.344024658203125
H 42.21196365356445 43.08229064941406 53.23883819580078
C 43.071998596191406 41.26559829711914 52.481956481933594
H 43.344661712646484 40.781593322753906 53.416282653808594
C 43.286251068115234 40.400333404541016 51.44116973876953
C 42.4208869934082 42.16910934448242 49.97239685058594
H 42.212562561035156 42.54341506958008 48.973358154296875
C 42.93836975097656 40.87810516357422 50.18060302734375
H 43.13597106933594 40.23094940185547 49.32988739013672
C 41.42641067504883 44.24760437011719 50.950828552246094
C 41.4079704284668 45.13098907470703 52.104698181152344
C 40.817012786865234 45.0949592590332 53.36272430419922
H 40.17641830444336 44.357269287109375 53.83460998535156
C 41.24699401855469 46.280887603759766 54.0181884765625
H 41.053958892822266 46.563682556152344 55.04774475097656
C 41.86235809326172 47.14750671386719 53.12879943847656
N 41.978553771972656 46.393836975097656 52.0137939453125
H 42.454402923583984 46.70797348022461 51.178924560546875
C 42.34097671508789 48.480712890625 53.33250427246094
H 42.63200378417969 48.68759536743164 54.361305236816406
C 42.66045379638672 49.459197998046875 52.50959777832031
C 43.73426055908203 50.340763092041016 52.65663146972656
H 44.388633728027344 50.35102081298828 53.52203369140625
C 43.85889434814453 50.98786544799805 51.46681213378906
H 44.66312789916992 51.6639289855957 51.1959228515625
C 42.819705963134766 50.57053756713867 50.61998748779297
N 41.99753952026367 49.65239715576172 51.28326416015625
C 42.59904861450195 50.98128890991211 49.233863830566406
C 42.05556106567383 50.17532730102539 48.23065185546875
C 41.20446014404297 50.571720123291016 47.184165954589844
H 41.18428039550781 51.56972885131836 46.75896453857422
C 40.7037353515625 49.49913787841797 46.513214111328125
H 39.91827392578125 49.55839920043945 45.76704406738281
C 40.94771194458008 48.32085037231445 47.256675720214844
N 41.8167724609375 48.84727096557617 48.24644470214844
H 42.21274185180664 48.233680725097656 48.94561767578125
C 40.42979431152344 47.11815643310547 47.11267852783203
H 39.795440673828125 47.00727462768555 46.23448944091797
C 40.501853942871094 45.94938659667969 48.00602722167969
C 39.799564361572266 44.696075439453125 47.83470153808594
H 39.17632293701172 44.374534606933594 47.006813049316406
C 40.093238830566406 44.011138916015625 48.99114227294922
H 39.647010803222656 43.0384635925293 49.17005920410156
C 41.012699127197266 44.69225311279297 49.722145080566406
N 41.15407180786133 45.92560577392578 49.134254455566406
C 43.83152770996094 55.01936340332031 48.109458923339844
C 43.610923767089844 54.06556701660156 47.097434997558594
H 43.763214111328125 54.395172119140625 46.07286834716797
C 43.321678161621094 52.729888916015625 47.49163055419922
H 43.27889633178711 51.966426849365234 46.71906280517578
C 43.11138916015625 52.37593078613281 48.81901550292969
C 43.61172866821289 54.65174102783203 49.42124938964844
H 43.61174011230469 55.376094818115234 50.231727600097656
C 43.356929779052734 53.34910583496094 49.789466857910156
H 43.074893951416016 53.18220901489258 50.825889587402344
N 44.067420959472656 56.37898635864258 47.798973083496094
H 43.617279052734375 56.69817352294922 46.954246520996094
C 45.02859115600586 57.242942810058594 48.208648681640625
O 45.7206916809082 57.05582809448242 49.17585754394531
C 45.13369369506836 58.49734878540039 47.35060119628906
C 46.4009895324707 59.08467102050781 47.12311553955078
H 47.29132080078125 58.52582550048828 47.39984130859375
C 46.56290817260742 60.29745864868164 46.35407257080078
C 45.367393493652344 60.944908142089844 46.00505065917969
H 45.42660140991211 61.92414474487305 45.53691101074219
C 44.1161003112793 60.39710235595703 46.28498840332031
H 43.261383056640625 61.01827621459961 46.02970886230469
C 44.01180648803711 59.1699333190918 46.94862365722656
H 43.05274963378906 58.837127685546875 47.33723449707031
C 47.89969253540039 60.782264709472656 45.97080993652344
H 48.67636489868164 60.102684020996094 46.31847381591797
C 48.290740966796875 61.88877487182617 45.268699645996094
H 47.50899124145508 62.493446350097656 44.81135559082031
C 49.6522216796875 62.36225128173828 45.05329132080078
C 49.63861846923828 63.82429885864258 44.63585662841797
H 49.9657096862793 64.3787841796875 45.517913818359375
H 48.72016525268555 64.30592346191406 44.29387664794922
H 50.23772430419922 63.90362548828125 43.72633361816406
C 50.762786865234375 61.57500076293945 45.13147735595703
H 50.61583709716797 60.50686264038086 45.284454345703125
C 52.16630935668945 62.00093078613281 45.000152587890625
H 52.33077621459961 63.07173156738281 44.88941192626953
C 53.24848937988281 61.11834716796875 45.01904296875
H 52.96821212768555 60.07290267944336 45.13911437988281
C 54.68464660644531 61.485164642333984 45.06389617919922
C 55.07283020019531 62.91522216796875 45.03325653076172
H 55.80510711669922 63.030391693115234 45.835105895996094
H 55.53742218017578 63.228790283203125 44.09608459472656
H 54.29328536987305 63.64085006713867 45.27458190917969
C 55.51127624511719 60.41652297973633 45.059791564941406
H 55.10966110229492 59.40460205078125 45.03435516357422
C 56.97065734863281 60.466312408447266 44.99701690673828
H 57.45998001098633 61.43717956542969 45.05949401855469
C 57.7062873840332 59.3254280090332 44.916664123535156
H 57.12540817260742 58.40734100341797 44.99168395996094
C 59.14726638793945 59.20010757446289 44.64873504638672
H 59.617008209228516 60.182579040527344 44.64490509033203
C 59.90665817260742 58.143653869628906 44.491600036621094
C 59.32570266723633 56.794986724853516 44.320220947265625
H 58.496517181396484 56.637428283691406 45.01310729980469
H 59.06119155883789 56.64295959472656 43.27170944213867
H 60.09022903442383 56.07843780517578 44.62769317626953
C 61.39030075073242 58.09516906738281 44.27928161621094
H 61.72348403930664 57.16147232055664 43.82859802246094
C 62.2230110168457 59.04603576660156 44.617523193359375
H 61.948970794677734 60.009090423583984 45.04570770263672
C 63.58878707885742 58.89276885986328 44.292518615722656
H 63.887516021728516 58.01054763793945 43.728271484375
C 64.58324432373047 59.57838439941406 44.91020965576172
C 64.30821228027344 60.694210052490234 45.86852264404297
H 63.77976608276367 61.501461029052734 45.35710144042969
H 63.77167892456055 60.274864196777344 46.722198486328125
H 65.24799346923828 61.04304885864258 46.30164337158203
C 65.99784088134766 59.44661331176758 44.541526794433594
H 66.67990112304688 60.03741455078125 45.15117645263672
C 66.57390594482422 58.64496994018555 43.65711212158203
H 65.84618377685547 58.09223556518555 43.0648078918457
C 67.95972442626953 58.65846252441406 43.2414665222168
C 68.87725830078125 57.90251922607422 43.95274353027344
C 68.6847915649414 57.08919143676758 45.25035858154297
H 69.50054931640625 57.298728942871094 45.945411682128906
H 67.72714233398438 57.39609146118164 45.67601776123047
H 68.52161407470703 56.0536994934082 44.944427490234375
C 70.33170318603516 57.92394256591797 43.606849670410156
H 70.73819732666016 56.93620300292969 43.834007263183594
H 70.8066635131836 58.643089294433594 44.27745056152344
C 70.54654693603516 58.244346618652344 42.08207321166992
H 70.16983795166016 57.37424087524414 41.540348052978516
H 71.61648559570312 58.31531524658203 41.87550354003906
C 69.73470306396484 59.53681945800781 41.713314056396484
H 70.05819702148438 60.350975036621094 42.36520767211914
H 69.9885482788086 59.887699127197266 40.71086120605469
C 68.28233337402344 59.35829162597656 41.906341552734375
C 67.6750717163086 60.6933479309082 41.77293395996094
H 67.94373321533203 61.20956802368164 40.84892272949219
H 66.59295654296875 60.626895904541016 41.9035758972168
H 67.9002685546875 61.386024475097656 42.5865364074707
C 67.67940521240234 58.491146087646484 40.77933883666992
H 67.8960189819336 58.88435745239258 39.78388595581055
H 68.05747985839844 57.46826171875 40.72248840332031
H 66.60835266113281 58.40176010131836 40.97252655029297
