207
Triad, Carotenoid-Porphyrin-C60
C 38.71800231933594 59.01011657714844 54.7016716003418
C 42.5304069519043 55.22145080566406 51.21479034423828
C 42.06466293334961 57.41108703613281 51.00319290161133
C 41.22677993774414 59.283851623535156 52.23828125
C 42.354942321777344 53.533966064453125 52.96607971191406
C 41.97918701171875 54.010345458984375 51.649776458740234
C 43.83546447753906 55.47477722167969 53.27405548095703
C 43.28083419799805 58.23521423339844 52.98112487792969
C 40.439414978027344 58.84021759033203 56.14476776123047
C 43.2896728515625 54.235389709472656 53.774330139160156
C 39.81184005737305 59.604881286621094 54.13240051269531
C 39.82733154296875 53.354705810546875 55.39773178100586
C 41.2402229309082 53.005088806152344 53.571311950683594
C 38.933895111083984 55.132896423339844 56.819435119628906
C 40.742610931396484 56.71991729736328 57.350460052490234
C 39.378501892089844 56.45983123779297 57.11360168457031
C 41.99283218383789 53.758934020996094 55.75060272216797
C 43.95620346069336 56.31365203857422 54.334659576416016
C 43.63644790649414 57.709869384765625 54.159427642822266
C 42.49140167236328 57.690528869628906 56.301124572753906
C 37.995384216308594 56.218040466308594 50.88205337524414
C 38.481292724609375 54.83915710449219 51.31098556518555
C 39.29450988769531 56.888458251953125 50.54015350341797
C 40.29100799560547 55.89171600341797 50.49254608154297
C 37.69624328613281 56.57892608642578 55.63929748535156
C 38.022247314453125 54.21405029296875 52.49226379394531
C 39.969482421875 59.524017333984375 52.75361251831055
C 38.75749206542969 53.45744323730469 54.52367401123047
C 40.142723083496094 53.10626220703125 52.68168640136719
C 37.91290283203125 55.215980529785156 55.85191345214844
C 39.71860122680664 58.128936767578125 51.052574157714844
C 41.27329635620117 54.42436218261719 56.69392776489258
C 41.68487548828125 55.7177734375 57.06258773803711
C 42.910133361816406 58.41304016113281 55.1356086730957
C 43.51746368408203 55.64894104003906 55.481712341308594
C 37.1688117980957 56.98512268066406 52.00251007080078
C 36.93959426879883 56.17750549316406 53.33430862426758
C 37.84030532836914 58.193931579589844 52.58079528808594
C 37.25496292114258 57.061920166015625 54.41062545776367
C 41.285484313964844 57.96056365966797 56.85799026489258
C 39.81377410888672 54.66063690185547 50.88187789916992
C 39.02184295654297 58.7476806640625 52.07012176513672
C 37.769039154052734 58.320701599121094 53.92401123046875
C 41.060909271240234 58.37028503417969 51.216827392578125
C 38.62134552001953 57.33656311035156 56.43072509765625
C 37.39072799682617 54.867042541503906 53.51424026489258
C 38.88867950439453 53.28746032714844 53.11830520629883
C 41.68547058105469 56.12760925292969 50.68912887573242
C 40.63942337036133 53.74384307861328 51.55970001220703
C 42.798648834228516 56.33416748046875 56.41680145263672
C 37.79806900024414 54.396575927734375 54.73104476928711
C 39.09837341308594 58.52318572998047 55.941165924072266
C 43.44363784790039 55.97509765625 52.01118850708008
C 43.1724739074707 57.34393310546875 51.883689880371094
C 42.28594207763672 59.215484619140625 53.12882995605469
C 40.87556457519531 59.54552459716797 55.018470764160156
C 41.098812103271484 53.061927795410156 54.95402908325195
C 39.914363861083984 54.16880798339844 56.558250427246094
C 42.13362121582031 59.34680938720703 54.47053146362305
C 43.093563079833984 54.35496520996094 55.14554214477539
C 37.027713775634766 56.12425994873047 49.71390914916992
N 35.90373992919922 56.711585998535156 49.80659866333008
C 35.84667205810547 57.28373718261719 51.19261932373047
H 35.04362487792969 56.72368621826172 51.678531646728516
H 35.53708267211914 58.31986999511719 51.35143280029297
C 37.98739242553711 53.174766540527344 46.65147399902344
C 38.64888000488281 54.378875732421875 46.74631881713867
H 39.40386962890625 54.617218017578125 46.001495361328125
C 38.33876419067383 55.34535217285156 47.71043014526367
H 38.906524658203125 56.271263122558594 47.75400161743164
C 37.327728271484375 55.152130126953125 48.65821075439453
C 36.93809127807617 52.96974182128906 47.61959457397461
H 36.373653411865234 52.040802001953125 47.626712799072266
C 36.70457077026367 53.898651123046875 48.66349411010742
H 35.98893737792969 53.72471618652344 49.46298599243164
C 38.28815841674805 52.05409240722656 45.691349029541016
C 39.39179611206055 52.267295837402344 44.893924713134766
C 39.729557037353516 53.21246337890625 43.95592498779297
H 39.20374298095703 54.14222717285156 43.765445709228516
C 40.9636344909668 52.877777099609375 43.379661560058594
H 41.600181579589844 53.46380615234375 42.72498321533203
C 41.25849914550781 51.65110778808594 43.878013610839844
N 40.26865005493164 51.264976501464844 44.63981628417969
H 40.247989654541016 50.437400817871094 45.220176696777344
C 42.45299530029297 50.97466278076172 43.77516174316406
H 43.286376953125 51.55928039550781 43.38837432861328
C 42.69172668457031 49.66822814941406 44.22896194458008
C 43.981143951416016 49.2197265625 44.39671325683594
H 44.83157730102539 49.862464904785156 44.194541931152344
C 43.87186050415039 47.91364288330078 44.84917068481445
H 44.60026168823242 47.342613220214844 45.415367126464844
C 42.50643539428711 47.560035705566406 44.811279296875
N 41.7601203918457 48.611724853515625 44.367427825927734
C 41.86743927001953 46.34596252441406 45.35112762451172
C 40.49443435668945 46.24040985107422 45.61920928955078
C 39.71421813964844 45.05619812011719 45.42185592651367
H 40.22400665283203 44.18721008300781 45.01911926269531
C 38.36376190185547 45.36558532714844 45.604095458984375
H 37.51145553588867 44.71411895751953 45.4416389465332
C 38.23906326293945 46.761383056640625 45.79759216308594
N 39.54146194458008 47.159324645996094 45.84518814086914
H 39.74256896972656 48.13758087158203 46.002342224121094
C 37.10233688354492 47.485572814941406 45.75521469116211
H 36.1944465637207 46.898712158203125 45.623878479003906
C 36.89863586425781 48.89483642578125 45.65830993652344
C 35.71159362792969 49.65007781982422 45.44612503051758
H 34.759944915771484 49.1357421875 45.362144470214844
C 36.141963958740234 50.98687744140625 45.4140625
H 35.416099548339844 51.778343200683594 45.259395599365234
C 37.49555206298828 50.99127197265625 45.62049102783203
N 37.8775634765625 49.77135467529297 45.72466278076172
C 44.28153610229492 42.943885803222656 46.70589828491211
C 43.015926361083984 43.22388458251953 47.288578033447266
H 42.63407516479492 42.49114990234375 47.994876861572266
C 42.26854705810547 44.307579040527344 46.793766021728516
H 41.371185302734375 44.619659423828125 47.3218879699707
C 42.75312042236328 45.136566162109375 45.74490737915039
C 44.680599212646484 43.717071533203125 45.59931182861328
H 45.67236328125 43.52940368652344 45.195892333984375
C 43.95859146118164 44.88706970214844 45.27646255493164
H 44.25352096557617 45.477142333984375 44.41252136230469
N 45.027774810791016 41.78645324707031 47.15999984741211
H 44.541683197021484 40.90509796142578 47.23079299926758
C 46.371734619140625 41.853515625 47.48300552368164
O 46.87907409667969 42.97346496582031 47.52629470825195
C 47.083030700683594 40.59526824951172 47.805301666259766
C 48.486778259277344 40.54986572265625 47.762908935546875
H 48.97875213623047 41.49967956542969 47.569557189941406
C 49.213096618652344 39.432891845703125 47.93148422241211
C 48.52790069580078 38.20899963378906 48.057037353515625
H 49.08558654785156 37.27619934082031 48.035953521728516
C 47.133018493652344 38.196266174316406 48.00376510620117
H 46.55127716064453 37.30186462402344 47.79590606689453
C 46.433189392089844 39.41374206542969 47.903221130371094
H 45.34891891479492 39.37684631347656 47.83563995361328
C 50.71281433105469 39.45269012451172 47.82265090942383
H 51.00718688964844 40.48523712158203 47.64067840576172
C 51.627220153808594 38.43859100341797 47.85336685180664
H 51.261451721191406 37.41288757324219 47.845726013183594
C 53.07634735107422 38.440895080566406 47.60444259643555
C 53.722564697265625 37.07872009277344 47.66028594970703
H 54.66807556152344 37.092994689941406 48.206417083740234
H 53.960052490234375 36.669029235839844 46.67630386352539
H 53.07810974121094 36.32609558105469 48.11930465698242
C 53.713958740234375 39.67621612548828 47.43305206298828
H 53.08918762207031 40.56640625 47.48920440673828
C 55.156761169433594 39.76727294921875 47.19865417480469
H 55.69169616699219 39.092552185058594 46.53194046020508
C 55.870750427246094 40.812767028808594 47.655067443847656
H 55.265464782714844 41.585044860839844 48.127445220947266
C 57.279327392578125 41.078163146972656 47.49095916748047
C 58.1593017578125 39.874603271484375 47.143123626708984
H 57.86627197265625 38.94489288330078 47.63529586791992
H 57.96520233154297 39.755088806152344 46.07517623901367
H 59.238792419433594 40.00260925292969 47.24691390991211
C 57.777679443359375 42.287139892578125 47.52552795410156
H 57.0020751953125 43.02680969238281 47.718536376953125
C 59.17436218261719 42.7208251953125 47.370445251464844
H 59.95520782470703 41.96800231933594 47.27322006225586
C 59.54754638671875 43.989776611328125 47.29280471801758
H 58.889564514160156 44.82293701171875 47.535343170166016
C 60.970977783203125 44.271728515625 47.182518005371094
H 61.582542419433594 43.409446716308594 46.92103958129883
C 61.6917724609375 45.31079864501953 47.5034065246582
C 61.105018615722656 46.505279541015625 48.06806182861328
H 61.826019287109375 47.297821044921875 48.27900314331055
H 60.35215759277344 47.07499694824219 47.519351959228516
H 60.50067901611328 46.280120849609375 48.949275970458984
C 63.154762268066406 45.179298400878906 47.57344436645508
H 63.666481018066406 45.76939392089844 48.33229064941406
C 63.898193359375 44.518104553222656 46.702247619628906
H 63.375465393066406 43.969268798828125 45.9202880859375
C 65.3736572265625 44.480003356933594 46.702816009521484
H 65.8497314453125 44.993072509765625 47.53710174560547
C 66.21539306640625 43.96379852294922 45.74212646484375
C 65.56902313232422 43.251182556152344 44.55617904663086
H 65.00260162353516 42.401885986328125 44.94388961791992
H 65.00226593017578 43.97865295410156 43.971343994140625
H 66.32418823242188 42.789276123046875 43.916778564453125
C 67.64371490478516 44.01866149902344 45.700714111328125
H 68.03981018066406 44.10639190673828 44.690101623535156
C 68.48890686035156 44.45171356201172 46.59653854370117
H 68.15628051757812 44.55548095703125 47.628292083740234
C 69.86325073242188 44.80310821533203 46.335567474365234
C 70.217041015625 45.59375762939453 45.256778717041016
C 69.35718536376953 46.196189880371094 44.14960861206055
H 68.34852600097656 46.25428009033203 44.56397247314453
H 69.55719757080078 47.24585723876953 43.9245719909668
H 69.37541961669922 45.730552673339844 43.162025451660156
C 71.60845184326172 46.06401824951172 44.9842643737793
H 71.65618896484375 47.03290557861328 45.48571014404297
H 71.72338104248047 46.18505859375 43.90509796142578
C 72.68506622314453 45.05421447753906 45.52863693237305
H 73.62860107421875 45.48328399658203 45.184959411621094
H 72.70023345947266 44.09767150878906 45.00208282470703
C 72.32440185546875 44.886070251464844 47.03118896484375
H 73.09261322021484 44.28980255126953 47.5279655456543
H 72.42632293701172 45.886260986328125 47.45744323730469
C 70.9112548828125 44.318756103515625 47.29204177856445
C 70.99049377441406 42.83307647705078 47.12959671020508
H 71.48139953613281 42.50658416748047 48.048770904541016
H 69.97994232177734 42.45580291748047 46.95951843261719
H 71.64923858642578 42.69023132324219 46.27045440673828
C 70.54065704345703 44.601173400878906 48.76517868041992
H 70.35902404785156 45.650634765625 49.006229400634766
H 69.69634246826172 43.94032287597656 48.972225189208984
H 71.33863067626953 44.099891662597656 49.31692886352539
