207
Triad, Carotenoid-Porphyrin-C60
C 55.82692337036133 34.20712661743164 53.21292495727539
C 51.07048797607422 38.06569290161133 55.19868850708008
C 51.33057403564453 37.01811599731445 53.14336013793945
C 52.51704788208008 35.1079216003418 52.31281661987305
C 51.86713409423828 37.96809005737305 57.476722717285156
C 51.76297378540039 38.61140823364258 56.253807067871094
C 50.679420471191406 36.07828903198242 56.42557144165039
C 50.88896942138672 34.75777816772461 54.0592041015625
C 54.799678802490234 32.678462982177734 54.58392333984375
C 51.34712600708008 36.66483688354492 57.538917541503906
C 54.580055236816406 33.89041519165039 52.708770751953125
C 55.21277618408203 36.94025802612305 58.295921325683594
C 53.14255142211914 38.17714309692383 57.9653434753418
C 56.41925048828125 35.0905876159668 57.3857536315918
C 54.9872932434082 33.15865707397461 56.988040924072266
C 56.1264762878418 33.8924446105957 56.73273468017578
C 53.23200225830078 35.86503982543945 58.71910095214844
C 50.92792892456055 34.736209869384766 56.40895462036133
C 50.98687744140625 34.00535202026367 55.21552658081055
C 52.86133575439453 32.82455825805664 56.164615631103516
C 55.11387634277344 38.892086029052734 53.002010345458984
C 54.861976623535156 39.34348678588867 54.43085479736328
C 53.68308639526367 38.40254592895508 52.6606559753418
C 52.82365417480469 38.78651809692383 53.664546966552734
C 57.247562408447266 35.27779006958008 55.30612564086914
C 55.714195251464844 38.98227310180664 55.47355651855469
C 53.89683151245117 34.94742202758789 52.08543395996094
C 55.89011764526367 37.78536605834961 57.40139389038086
C 53.81452941894531 38.99858474731445 57.07939529418945
C 57.16488265991211 35.92392349243164 56.562843322753906
C 53.47722244262695 37.1325798034668 52.09873962402344
C 54.24313735961914 34.91450881958008 58.54623794555664
C 53.99068069458008 33.65468215942383 57.919273376464844
C 52.00943374633789 33.07149124145508 55.07143783569336
C 51.7566032409668 34.407161712646484 57.508331298828125
C 56.20756530761719 37.827388763427734 52.84292221069336
C 56.892024993896484 37.36958694458008 54.11812210083008
C 55.7933464050293 36.41901779174805 52.368858337402344
C 57.11687088012695 36.005428314208984 54.11857223510742
C 54.24018859863281 32.63735580444336 55.870731353759766
C 53.496952056884766 39.35042190551758 54.74300003051758
C 54.499412536621094 36.16787338256836 51.91930389404297
C 56.41514587402344 35.40096664428711 53.04636001586914
C 52.269378662109375 36.476131439208984 52.28020095825195
C 56.68665313720703 33.9893684387207 55.438079833984375
C 56.663299560546875 37.992244720458984 55.33991622924805
C 55.165252685546875 38.796199798583984 56.77950668334961
C 51.61898422241211 38.14780807495117 53.93050003051758
C 52.944183349609375 39.28290939331055 56.042694091796875
C 52.720760345458984 33.454410552978516 57.37678527832031
C 56.79838562011719 37.287471771240234 56.5078125
C 56.00385665893555 33.464786529541016 54.35734939575195
C 50.54136276245117 36.80018997192383 55.31795883178711
C 50.62153625488281 36.14780044555664 54.07204055786133
C 51.80659484863281 34.20524978637695 53.12358474731445
C 53.870243072509766 33.04459762573242 53.619056701660156
C 53.865074157714844 37.1110725402832 58.56097412109375
C 55.456581115722656 35.56167984008789 58.23965072631836
C 52.49951171875 33.219181060791016 53.81330490112305
C 51.98516845703125 35.63222885131836 58.159568786621094
C 55.477394104003906 40.02048110961914 52.065032958984375
N 56.6259765625 39.84868240356445 51.527565002441406
C 57.24617385864258 38.56101608276367 51.892173767089844
H 58.157413482666016 38.79563522338867 52.44827651977539
H 57.4134407043457 37.95102310180664 51.00077819824219
C 53.13614273071289 43.706050872802734 51.91563034057617
C 52.99838638305664 42.70255661010742 50.95232009887695
H 52.18342971801758 42.781681060791016 50.23736572265625
C 53.76431655883789 41.4803581237793 50.984413146972656
H 53.62290954589844 40.65414047241211 50.2923698425293
C 54.72475051879883 41.243228912353516 51.97609329223633
C 54.1097297668457 43.48135757446289 52.90638732910156
H 54.05226135253906 44.11124038696289 53.79042434692383
C 54.89026641845703 42.29961013793945 52.916648864746094
H 55.5811653137207 42.002689361572266 53.70154571533203
C 52.33174133300781 44.915287017822266 51.973323822021484
C 51.271785736083984 44.9565315246582 50.97088623046875
C 51.30168914794922 44.908329010009766 49.562042236328125
H 52.2149658203125 44.83040237426758 48.98146057128906
C 49.901092529296875 44.983333587646484 49.100120544433594
H 49.62174987792969 44.8480110168457 48.06046676635742
C 49.167686462402344 45.23163986206055 50.20317840576172
N 49.95113754272461 45.18165969848633 51.29875946044922
H 49.54706954956055 45.15919876098633 52.2252311706543
C 47.780433654785156 45.374263763427734 50.36050796508789
H 47.19866180419922 45.005191802978516 49.51715087890625
C 47.12861633300781 45.9644660949707 51.438419342041016
C 45.80513381958008 45.55459213256836 51.802452087402344
H 45.25699996948242 44.78116989135742 51.27463150024414
C 45.55539321899414 46.13112258911133 53.0114860534668
H 44.68375015258789 45.971736907958984 53.63763427734375
C 46.67392349243164 46.974918365478516 53.27641677856445
N 47.60719680786133 46.87070083618164 52.358924865722656
C 46.72758483886719 47.959712982177734 54.41737747192383
C 47.8110466003418 47.92277145385742 55.30707550048828
C 47.92457962036133 48.36434555053711 56.64949035644531
H 47.05196762084961 48.689090728759766 57.20655059814453
C 49.20737838745117 48.30453872680664 57.178646087646484
H 49.663612365722656 48.68061447143555 58.08839416503906
C 49.998512268066406 47.73698806762695 56.105934143066406
N 49.107364654541016 47.45730209350586 55.12303924560547
H 49.39406204223633 46.88002395629883 54.34415054321289
C 51.348304748535156 47.684574127197266 55.907230377197266
H 51.97229766845703 48.10667037963867 56.693603515625
C 52.060420989990234 47.13166427612305 54.75788497924805
C 53.445335388183594 47.15018844604492 54.36581039428711
H 54.122188568115234 47.82454299926758 54.87995147705078
C 53.67522048950195 46.3624382019043 53.3087158203125
H 54.62578582763672 46.180538177490234 52.8182487487793
C 52.482765197753906 45.83830642700195 53.02864074707031
N 51.561614990234375 46.307559967041016 53.851890563964844
C 43.852481842041016 51.33100509643555 53.9537239074707
C 44.748111724853516 51.26786422729492 55.016456604003906
H 44.712989807128906 52.10348129272461 55.71076965332031
C 45.729183197021484 50.24050521850586 55.12880325317383
H 46.525047302246094 50.35554885864258 55.860198974609375
C 45.72565841674805 49.0986442565918 54.34202575683594
C 43.79418182373047 50.21561813354492 53.10577392578125
H 43.00819778442383 50.095462799072266 52.364585876464844
C 44.68877029418945 49.15138626098633 53.403751373291016
H 44.56758117675781 48.301937103271484 52.73643112182617
N 42.92645263671875 52.34914016723633 53.64938735961914
H 42.5410041809082 52.379825592041016 52.71741485595703
C 42.45433044433594 53.32914352416992 54.395912170410156
O 42.7727165222168 53.38844680786133 55.558746337890625
C 41.39909362792969 54.27749252319336 53.797943115234375
C 41.213382720947266 54.52336502075195 52.416927337646484
H 41.90755081176758 53.99709701538086 51.76674270629883
C 40.36361312866211 55.52021408081055 52.018192291259766
C 39.606990814208984 56.23476791381836 52.946624755859375
H 38.9005241394043 57.02907180786133 52.719547271728516
C 39.62978744506836 55.86619186401367 54.24029541015625
H 39.01142883300781 56.36715316772461 54.98072052001953
C 40.50125503540039 54.94160079956055 54.62498474121094
H 40.54741668701172 54.611324310302734 55.65956497192383
C 40.21110534667969 55.808712005615234 50.53131103515625
H 40.860191345214844 55.18484878540039 49.918609619140625
C 39.4155387878418 56.6471061706543 49.82361602783203
H 38.81895065307617 57.308475494384766 50.45018768310547
C 39.41382598876953 56.993045806884766 48.4105110168457
C 38.45263671875 58.100833892822266 48.01466751098633
H 38.04812240600586 57.88258743286133 47.024112701416016
H 38.95035934448242 59.0708122253418 47.952335357666016
H 37.60093688964844 58.19929885864258 48.69096755981445
C 40.23577880859375 56.449405670166016 47.49979782104492
H 40.93629837036133 55.72042465209961 47.904483795166016
C 40.45556640625 56.84749984741211 46.08942413330078
H 39.77907943725586 57.63888931274414 45.77007293701172
C 41.36826705932617 56.38187789916992 45.20778274536133
H 42.09225845336914 55.707149505615234 45.662208557128906
C 41.53505325317383 56.616825103759766 43.77751159667969
C 40.268978118896484 56.853458404541016 43.08232879638672
H 39.35350036621094 56.50495529174805 43.5649299621582
H 40.13869857788086 57.93095016479492 42.961856842041016
H 40.2745475769043 56.41411209106445 42.0826301574707
C 42.70830535888672 56.84275436401367 43.15363311767578
H 43.52313232421875 56.582149505615234 43.82747268676758
C 43.07084274291992 57.29159927368164 41.761924743652344
H 42.302764892578125 57.6506233215332 41.0784912109375
C 44.3139533996582 57.4818229675293 41.353206634521484
H 45.116920471191406 57.41959762573242 42.086212158203125
C 44.669925689697266 57.990535736083984 40.019134521484375
H 43.91529846191406 57.783512115478516 39.26176834106445
C 45.688621520996094 58.69943618774414 39.646087646484375
C 46.86384201049805 59.1745491027832 40.53535461425781
H 47.72123336791992 58.56314468383789 40.246341705322266
H 47.19724655151367 60.210689544677734 40.447471618652344
H 46.72559356689453 59.06980514526367 41.61349105834961
C 45.6249885559082 59.230037689208984 38.30204772949219
H 44.63455581665039 59.380741119384766 37.8751335144043
C 46.6955680847168 59.64371871948242 37.63533020019531
H 47.70120620727539 59.4739875793457 38.017173767089844
C 46.675052642822266 60.36019515991211 36.36056900024414
H 45.891845703125 60.02890396118164 35.68030548095703
C 47.401123046875 61.4560661315918 35.952789306640625
C 48.674861907958984 61.7581901550293 36.64023971557617
H 48.74999237060547 61.65977096557617 37.72520065307617
H 49.38846206665039 61.13797378540039 36.09382629394531
H 48.846004486083984 62.81057357788086 36.404335021972656
C 46.96641159057617 62.348384857177734 34.823848724365234
H 46.06634521484375 61.944820404052734 34.36239242553711
C 47.58723068237305 63.4051399230957 34.2457389831543
H 48.60253143310547 63.67301559448242 34.53440856933594
C 47.02578353881836 64.03507232666016 33.02115249633789
C 45.876155853271484 64.7159423828125 32.97224807739258
C 44.9929313659668 65.06153106689453 34.13471603393555
H 45.34065246582031 64.53327178955078 35.02493667602539
H 45.094566345214844 66.12165069580078 34.37615203857422
H 43.92949295043945 64.84526062011719 34.01308822631836
C 45.383174896240234 65.45025634765625 31.69895362854004
H 45.53569793701172 66.51936340332031 31.86080551147461
H 44.296016693115234 65.37836456298828 31.625581741333008
C 45.963279724121094 65.0652084350586 30.318620681762695
H 45.7147331237793 65.73281860351562 29.490982055664062
H 45.4586181640625 64.1492919921875 30.004180908203125
C 47.506221771240234 64.88785552978516 30.49651527404785
H 48.01519775390625 64.6473159790039 29.560810089111328
H 47.86804962158203 65.86349487304688 30.827701568603516
C 47.873779296875 63.9061393737793 31.705167770385742
C 47.79788589477539 62.49904251098633 31.15643882751465
H 46.75306701660156 62.35725784301758 30.872337341308594
H 48.41147232055664 62.373958587646484 30.261831283569336
H 48.04133605957031 61.690799713134766 31.84920883178711
C 49.276607513427734 64.2444076538086 31.87279510498047
H 49.845882415771484 63.58163833618164 32.52786636352539
H 49.723724365234375 64.16053771972656 30.880064010620117
H 49.32807922363281 65.26528930664062 32.25700759887695
