207
Triad, Carotenoid-Porphyrin-C60
C 45.54573059082031 68.31742095947266 53.14540100097656
C 42.03353500366211 63.8412971496582 50.28791046142578
C 42.332435607910156 64.07611083984375 52.503292083740234
C 43.07549285888672 65.97284698486328 53.865806579589844
C 42.210723876953125 64.99886322021484 48.138057708740234
C 42.61283874511719 63.96537399291992 49.018436431884766
C 40.70953369140625 65.78716278076172 49.856231689453125
C 41.05362319946289 66.22065734863281 52.58694839477539
C 43.844207763671875 69.54973602294922 52.47579574584961
C 41.19384002685547 65.9102783203125 48.54707336425781
C 44.43601989746094 67.906494140625 53.815670013427734
C 44.72724914550781 67.35702514648438 47.4945068359375
C 43.34935760498047 65.43148803710938 47.40706253051758
C 45.504180908203125 69.24566650390625 48.816890716552734
C 43.65418243408203 70.06497955322266 50.13406753540039
C 45.00605010986328 69.87264251708984 49.99501037597656
C 42.52899932861328 67.73774719238281 47.6983757019043
C 40.48155212402344 67.03687286376953 50.379173278808594
C 40.7080078125 67.27742004394531 51.705718994140625
C 41.757503509521484 69.40510559082031 51.26599884033203
C 46.495025634765625 63.97394943237305 51.543304443359375
C 46.02415466308594 63.982120513916016 50.08401107788086
C 45.116432189941406 63.653446197509766 52.201576232910156
C 44.194061279296875 63.30585861206055 51.203765869140625
C 46.69563293457031 68.65279388427734 50.640010833740234
C 46.442970275878906 64.94275665283203 49.214569091796875
C 44.284027099609375 66.5080795288086 54.03703689575195
C 45.82896423339844 66.68379211425781 47.86680221557617
C 44.44725799560547 64.71666717529297 47.8545036315918
C 46.56817626953125 68.4369888305664 49.27165603637695
C 44.58958435058594 64.44132995605469 53.1612548828125
C 43.182708740234375 68.82757568359375 48.17158126831055
C 42.75502014160156 69.55706787109375 49.225242614746094
C 41.31407165527344 68.3940200805664 52.168540954589844
C 40.88617706298828 67.99381256103516 49.48231506347656
C 47.28369140625 65.27854919433594 51.99497985839844
C 47.395973205566406 66.37104797363281 50.893795013427734
C 46.399444580078125 66.0590591430664 52.983116149902344
C 47.050201416015625 67.55354309082031 51.41346740722656
C 43.04103088378906 69.88934326171875 51.38300323486328
C 44.75963592529297 63.447696685791016 49.943756103515625
C 45.227821350097656 65.60105895996094 53.5887336730957
C 46.503173828125 67.41043090820312 52.67518997192383
C 43.25050354003906 64.6734619140625 53.377933502197266
C 45.85015106201172 69.59293365478516 51.06442642211914
C 47.163330078125 66.1058578491211 49.62656021118164
C 45.63420104980469 65.3396987915039 48.119537353515625
C 42.82746124267578 63.47251510620117 51.357059478759766
C 43.981727600097656 63.80466079711914 48.82190704345703
C 41.59477615356445 69.20930480957031 49.9069938659668
C 46.81700897216797 67.17236328125 48.77196502685547
C 45.23851776123047 69.40465545654297 52.33818054199219
C 41.10123825073242 64.74282836914062 50.69094467163086
C 41.238868713378906 64.8984603881836 52.0882568359375
C 41.9486083984375 66.71526336669922 53.535072326660156
C 43.33531951904297 68.64822387695312 53.42390441894531
C 43.48694610595703 66.84486389160156 47.32844161987305
C 44.548980712890625 68.62384033203125 47.99699401855469
C 42.06781768798828 68.0194320678711 53.2906379699707
C 41.31745147705078 67.28369903564453 48.390830993652344
C 47.51533508300781 62.87410354614258 51.951202392578125
N 48.564300537109375 63.337215423583984 52.47621154785156
C 48.64312744140625 64.79969024658203 52.51134490966797
H 49.42169952392578 65.20114135742188 51.85764694213867
H 48.836669921875 65.11327362060547 53.54035186767578
C 46.45298767089844 58.6053581237793 51.988739013671875
C 46.728233337402344 59.33210372924805 50.83794021606445
H 46.88953399658203 58.78536605834961 49.91239929199219
C 47.072174072265625 60.68596267700195 50.82913589477539
H 47.3455810546875 61.2343635559082 49.93131637573242
C 47.195526123046875 61.4532356262207 51.999820709228516
C 46.68891143798828 59.30366897583008 53.160648345947266
H 46.68583679199219 58.73434829711914 54.08662414550781
C 46.93925476074219 60.68954086303711 53.17854690551758
H 47.082557678222656 61.22427749633789 54.114009857177734
C 46.05451965332031 57.1362190246582 51.963478088378906
C 45.954742431640625 56.455570220947266 50.72808837890625
C 45.099525451660156 56.590694427490234 49.64595413208008
H 44.46662139892578 57.459590911865234 49.49869155883789
C 45.422889709472656 55.521427154541016 48.7286262512207
H 44.86437225341797 55.358524322509766 47.81279754638672
C 46.411865234375 54.67304611206055 49.23540115356445
N 46.76554870605469 55.353580474853516 50.43659973144531
H 47.56189727783203 54.99092483520508 50.942996978759766
C 47.012351989746094 53.4680061340332 48.80786895751953
H 46.957000732421875 53.1905632019043 47.75625991821289
C 47.829307556152344 52.5688591003418 49.5413818359375
C 49.08769989013672 52.19746780395508 49.01289749145508
H 49.55071258544922 52.55160903930664 48.09778594970703
C 49.58526611328125 51.3901252746582 49.9450569152832
H 50.59126281738281 50.9838752746582 49.9574089050293
C 48.653297424316406 51.2613639831543 51.06510925292969
N 47.588958740234375 51.992671966552734 50.81190490722656
C 48.820152282714844 50.56277847290039 52.430904388427734
C 48.16034698486328 51.12223434448242 53.52159881591797
C 47.75115966796875 50.465816497802734 54.71121597290039
H 47.96764373779297 49.427913665771484 54.94171142578125
C 46.927001953125 51.26767349243164 55.5103645324707
H 46.652793884277344 51.02571487426758 56.53187942504883
C 46.8480224609375 52.49662399291992 54.88844680786133
N 47.509727478027344 52.300540924072266 53.70998001098633
H 47.505638122558594 53.02162551879883 53.00136184692383
C 46.18305206298828 53.62074661254883 55.279396057128906
H 45.756439208984375 53.58835220336914 56.28083419799805
C 45.98040008544922 54.90922927856445 54.639461517333984
C 45.166465759277344 55.94413375854492 55.152103424072266
H 44.670921325683594 55.76688003540039 56.10091781616211
C 45.06939697265625 56.9248161315918 54.15367889404297
H 44.386444091796875 57.76234817504883 54.05704879760742
C 45.872161865234375 56.454219818115234 53.14080047607422
N 46.39733123779297 55.25564956665039 53.448638916015625
C 51.13890075683594 46.8476448059082 52.831851959228516
C 50.69989776611328 47.6085319519043 53.950191497802734
H 50.93402099609375 47.25764846801758 54.95200729370117
C 50.05583190917969 48.873783111572266 53.7944221496582
H 50.122962951660156 49.58982467651367 54.609493255615234
C 49.668006896972656 49.34370803833008 52.52106857299805
C 50.83100128173828 47.402347564697266 51.60214614868164
H 51.156272888183594 46.7329216003418 50.809906005859375
C 50.018959045410156 48.566471099853516 51.4499397277832
H 49.495277404785156 48.80789566040039 50.528507232666016
N 51.81629180908203 45.657413482666016 53.155025482177734
H 52.259918212890625 45.65303421020508 54.06126022338867
C 51.94020080566406 44.50351333618164 52.4655647277832
O 51.44480895996094 44.39713668823242 51.3646125793457
C 52.62849426269531 43.253292083740234 53.0184211730957
C 52.72978973388672 42.10934066772461 52.219390869140625
H 52.358299255371094 42.06233596801758 51.19892501831055
C 53.253150939941406 40.93038558959961 52.699337005615234
C 53.797630310058594 40.92559814453125 54.017913818359375
H 54.31206512451172 40.01322937011719 54.308624267578125
C 53.80030059814453 42.0862922668457 54.76210403442383
H 54.222900390625 42.08932876586914 55.763587951660156
C 53.242591857910156 43.23514938354492 54.22632598876953
H 53.13587188720703 44.06119918823242 54.924774169921875
C 53.34986877441406 39.722755432128906 51.835506439208984
H 52.886619567871094 39.97154998779297 50.881874084472656
C 53.821617126464844 38.51919937133789 51.942996978759766
H 54.246177673339844 38.09653854370117 52.85240936279297
C 53.62701416015625 37.532257080078125 50.914306640625
C 53.19538116455078 36.25818634033203 51.35528564453125
H 53.99394226074219 35.52409362792969 51.22932434082031
H 52.332252502441406 36.01051712036133 50.73387908935547
H 52.89476013183594 36.26829147338867 52.40504455566406
C 53.698585510253906 37.82368469238281 49.583316802978516
H 54.11454772949219 38.76850128173828 49.23659133911133
C 53.598114013671875 36.818458557128906 48.520328521728516
H 53.23207092285156 35.85135269165039 48.86185836791992
C 53.914405822753906 36.92646408081055 47.1923828125
H 54.290672302246094 37.90048599243164 46.883148193359375
C 53.79783630371094 35.98786544799805 46.08784103393555
C 53.94580078125 36.62435531616211 44.76338577270508
H 53.638404846191406 37.669437408447266 44.68743133544922
H 54.922691345214844 36.5613899230957 44.27945327758789
H 53.195228576660156 36.16910171508789 44.11388397216797
C 53.593963623046875 34.6540641784668 46.281063079833984
H 53.5706787109375 34.269309997558594 47.299564361572266
C 53.411285400390625 33.528564453125 45.3898811340332
H 53.42878723144531 33.814491271972656 44.3392333984375
C 52.96172332763672 32.34507751464844 45.68840408325195
H 52.76753234863281 32.26194763183594 46.756717681884766
C 52.57971954345703 31.293041229248047 44.75471115112305
H 52.69495391845703 31.51592254638672 43.695011138916016
C 52.25312805175781 30.017322540283203 44.98420715332031
C 51.989845275878906 29.454784393310547 46.409786224365234
H 52.93138122558594 29.331966400146484 46.94913101196289
H 51.45491027832031 30.136016845703125 47.074790954589844
H 51.399208068847656 28.53714370727539 46.37046813964844
C 52.06103515625 29.013980865478516 43.9388427734375
H 51.470741271972656 28.145793914794922 44.22819900512695
C 52.63721466064453 28.905067443847656 42.7413330078125
H 53.459991455078125 29.58481216430664 42.52477264404297
C 52.452667236328125 27.76728057861328 41.842437744140625
H 51.47069549560547 27.29663848876953 41.855079650878906
C 53.41138458251953 27.34441375732422 40.947967529296875
C 54.718894958496094 28.046737670898438 40.929054260253906
H 55.19812774658203 28.04943084716797 41.9102668762207
H 55.48484802246094 27.58029556274414 40.305992126464844
H 54.504676818847656 29.073657989501953 40.62571716308594
C 53.353240966796875 26.150203704833984 40.140159606933594
H 54.30511474609375 25.9398193359375 39.65476989746094
C 52.27796173095703 25.41598892211914 39.8944206237793
H 51.308685302734375 25.72271728515625 40.284725189208984
C 52.10833740234375 24.35765838623047 38.947425842285156
C 53.02302551269531 23.344024658203125 38.79417037963867
C 54.1878662109375 23.050457000732422 39.78620910644531
H 55.044700622558594 23.65843963623047 39.48846435546875
H 53.90632629394531 23.256813049316406 40.82091522216797
H 54.37567138671875 21.98135757446289 39.666927337646484
C 53.12577819824219 22.345226287841797 37.665645599365234
H 52.668128967285156 21.441329956054688 38.07306671142578
H 54.180076599121094 22.26349639892578 37.39316940307617
C 52.33787536621094 22.924407958984375 36.45854568481445
H 52.364051818847656 22.160972595214844 35.678192138671875
H 52.80354309082031 23.834903717041016 36.075645446777344
C 50.911102294921875 23.32715606689453 36.947898864746094
H 50.23655700683594 23.523929595947266 36.111995697021484
H 50.478179931640625 22.44162368774414 37.417884826660156
C 50.929420471191406 24.493022918701172 37.934085845947266
C 51.147666931152344 25.69771957397461 37.09305953979492
H 50.45899963378906 25.71307373046875 36.2457275390625
H 50.88389587402344 26.62508773803711 37.60577392578125
H 52.18267822265625 25.711040496826172 36.745155334472656
C 49.58186340332031 24.550506591796875 38.58509063720703
H 48.77191925048828 24.480777740478516 37.85598373413086
H 49.47759246826172 23.75021743774414 39.320709228515625
H 49.41400146484375 25.523540496826172 39.05144500732422
