207
Triad, Carotenoid-Porphyrin-C60
C 63.64484405517578 39.117218017578125 58.0806770324707
C 59.197242736816406 37.57946014404297 53.62158966064453
C 61.09175109863281 38.69174575805664 53.379112243652344
C 63.190406799316406 38.96322250366211 54.50156021118164
C 58.10028076171875 35.97955322265625 55.210609436035156
C 58.15734100341797 37.21441650390625 54.55362319946289
C 60.18242645263672 35.35919189453125 53.959228515625
C 62.550193786621094 36.801517486572266 53.66029357910156
C 64.1389389038086 36.91325759887695 57.79527282714844
C 59.14373779296875 35.100669860839844 54.901885986328125
C 63.993804931640625 38.873538970947266 56.7646598815918
C 58.62821960449219 36.100250244140625 58.69690704345703
C 57.649017333984375 36.092124938964844 56.466548919677734
C 60.751007080078125 36.38715362548828 59.90050506591797
C 62.53431701660156 35.3597412109375 58.602542877197266
C 62.063621520996094 36.21421432495117 59.5554084777832
C 59.336647033691406 34.5364875793457 57.28579330444336
C 61.36846160888672 34.80077362060547 54.43096923828125
C 62.54536437988281 35.558250427246094 54.29047775268555
C 63.16828918457031 34.994964599609375 56.52827835083008
C 59.61466979980469 41.212032318115234 56.547550201416016
C 58.56166076660156 40.192298889160156 56.66942596435547
C 60.19892883300781 40.6595573425293 55.25395584106445
C 59.29486083984375 39.81139373779297 54.6137809753418
C 61.66162109375 38.471824645996094 59.90253829956055
C 58.37644958496094 39.43956756591797 57.83076095581055
C 63.49195861816406 39.6568489074707 55.74440383911133
C 58.328529357910156 37.427547454833984 58.872493743896484
C 57.45353698730469 37.529937744140625 56.63858413696289
C 60.476722717285156 37.72351837158203 60.032989501953125
C 61.54113006591797 40.51457595825195 54.92218780517578
C 60.271583557128906 34.60581588745117 58.348968505859375
C 61.63715362548828 34.512001037597656 58.036224365234375
C 63.44861602783203 35.63511657714844 55.326019287109375
C 61.04950714111328 34.15800857543945 55.67435836791992
C 60.648704528808594 41.24186325073242 57.67612075805664
C 60.44207763671875 40.28919219970703 58.80962371826172
C 62.08711242675781 40.825321197509766 57.25653076171875
C 61.62775421142578 39.742156982421875 59.26102066040039
C 63.59008026123047 35.64371871948242 57.73950958251953
C 58.33900451660156 39.466434478759766 55.5327262878418
C 62.456336975097656 40.59407424926758 55.93231964111328
C 62.60078430175781 40.00473403930664 58.30350112915039
C 61.97461700439453 39.570526123046875 54.05152130126953
C 62.65221405029297 37.54330062866211 59.64422607421875
C 59.26776885986328 39.518917083740234 58.898189544677734
C 57.793800354003906 38.170021057128906 57.82836151123047
C 59.785369873046875 38.80695343017578 53.721832275390625
C 57.738853454589844 38.23627471923828 55.447242736816406
C 61.96147155761719 34.26318359375 56.71596145629883
C 59.266090393066406 38.26594924926758 59.5185432434082
C 63.67198944091797 37.869503021240234 58.70512771606445
C 60.18048858642578 36.6368408203125 53.336273193359375
C 61.338768005371094 37.317230224609375 53.127471923828125
C 63.46516418457031 37.611732482910156 54.332679748535156
C 64.28334045410156 37.539615631103516 56.544158935546875
C 58.32334899902344 35.42371368408203 57.525611877441406
C 59.82145690917969 35.550235748291016 59.22520446777344
C 64.01911926269531 36.901424407958984 55.334102630615234
C 59.759666442871094 34.39427185058594 55.949459075927734
C 59.199073791503906 42.64914321899414 56.50407028198242
N 59.69475555419922 43.395545959472656 57.42649841308594
C 60.62236785888672 42.683753967285156 58.271053314208984
H 60.26148986816406 42.758140563964844 59.30007553100586
H 61.58183288574219 43.205833435058594 58.232120513916016
C 56.679176330566406 44.344120025634766 53.4940185546875
C 56.18688201904297 43.37770080566406 54.3370475769043
H 55.161766052246094 43.05060958862305 54.18303680419922
C 57.064239501953125 42.75568771362305 55.272891998291016
H 56.78581237792969 41.901206970214844 55.884376525878906
C 58.343345642089844 43.233184814453125 55.48954391479492
C 57.994720458984375 44.81389617919922 53.71813201904297
H 58.3321533203125 45.68635559082031 53.16448211669922
C 58.80225372314453 44.297916412353516 54.724937438964844
H 59.80517578125 44.6584358215332 54.938804626464844
C 55.79017639160156 44.92296600341797 52.370086669921875
C 54.425392150878906 44.47647476196289 52.25687789916992
C 53.84880828857422 43.20329666137695 52.11870193481445
H 54.379127502441406 42.25786209106445 52.0724983215332
C 52.4942626953125 43.373741149902344 51.80357360839844
H 51.796302795410156 42.6085090637207 51.480316162109375
C 52.185081481933594 44.70751953125 51.891056060791016
N 53.32799530029297 45.32589340209961 52.11176300048828
H 53.4425048828125 46.330379486083984 52.1080322265625
C 50.878807067871094 45.2895393371582 51.86545181274414
H 50.08271026611328 44.55732345581055 51.73893737792969
C 50.64875030517578 46.64265441894531 51.80488204956055
C 49.55845642089844 47.29109573364258 52.396934509277344
H 48.758888244628906 46.87298583984375 52.99951171875
C 49.807716369628906 48.61923599243164 52.126773834228516
H 49.230186462402344 49.50963592529297 52.35232925415039
C 51.035797119140625 48.753082275390625 51.39371109008789
N 51.55883026123047 47.520870208740234 51.236759185791016
C 51.580299377441406 49.95146942138672 50.69217300415039
C 52.75651550292969 50.04046630859375 50.040592193603516
C 53.12522888183594 50.84001922607422 48.87310028076172
H 52.49671173095703 51.649208068847656 48.516170501708984
C 54.375511169433594 50.393287658691406 48.4228401184082
H 54.92283630371094 50.94170379638672 47.663299560546875
C 54.790184020996094 49.32892990112305 49.23857116699219
N 53.76750183105469 49.20747756958008 50.118980407714844
H 53.80518341064453 48.39384078979492 50.7178955078125
C 55.925987243652344 48.61388397216797 49.214630126953125
H 56.56700134277344 48.92644500732422 48.391632080078125
C 56.278167724609375 47.41543960571289 49.972625732421875
C 57.410430908203125 46.64774703979492 49.762733459472656
H 58.230369567871094 46.844635009765625 49.0799674987793
C 57.36543273925781 45.645484924316406 50.682212829589844
H 58.10499572753906 44.859230041503906 50.792110443115234
C 56.27435302734375 45.84687423706055 51.46117401123047
N 55.591346740722656 46.86167907714844 50.97225570678711
C 48.940818786621094 53.534751892089844 50.32126235961914
C 50.31934356689453 53.60548400878906 50.390506744384766
H 50.781349182128906 54.581077575683594 50.26265335083008
C 51.179595947265625 52.45924377441406 50.41410827636719
H 52.235939025878906 52.65815734863281 50.5758056640625
C 50.60844421386719 51.15679168701172 50.56130599975586
C 48.40802001953125 52.226356506347656 50.26534652709961
H 47.35247802734375 52.08930969238281 50.04484939575195
C 49.21333312988281 51.08935546875 50.4090461730957
H 48.84202575683594 50.068641662597656 50.366024017333984
N 48.17259216308594 54.72911834716797 50.16075134277344
H 47.56327819824219 54.636375427246094 49.36186981201172
C 48.33341979980469 55.902801513671875 50.78498458862305
O 49.19403839111328 56.02641296386719 51.63152313232422
C 47.35380554199219 56.94004821777344 50.45587158203125
C 46.43634033203125 56.79083251953125 49.40221405029297
H 46.383026123046875 55.807212829589844 48.942623138427734
C 45.41053771972656 57.668426513671875 49.153289794921875
C 45.34080505371094 58.809593200683594 49.980918884277344
H 44.61658477783203 59.609153747558594 49.847557067871094
C 46.34064483642578 59.04961395263672 50.968807220458984
H 46.20824432373047 59.90602111816406 51.6250114440918
C 47.25194549560547 58.076560974121094 51.23594284057617
H 47.86669921875 58.218597412109375 52.12108612060547
C 44.465171813964844 57.397064208984375 48.0640754699707
H 44.77671813964844 56.500038146972656 47.53096389770508
C 43.3255615234375 58.082481384277344 47.73110580444336
H 43.001441955566406 58.94850158691406 48.30632019042969
C 42.401214599609375 57.81439208984375 46.66889572143555
C 43.04064178466797 57.16828155517578 45.45708084106445
H 42.30743408203125 57.332725524902344 44.66471862792969
H 43.3507080078125 56.143898010253906 45.67376708984375
H 43.98023986816406 57.69245910644531 45.270328521728516
C 41.151390075683594 58.29717254638672 46.61288833618164
H 40.737640380859375 58.94731140136719 47.3823356628418
C 40.19172668457031 58.144195556640625 45.52021408081055
H 40.3531494140625 57.326332092285156 44.81952667236328
C 38.97711944580078 58.752662658691406 45.506507873535156
H 38.65898132324219 59.309814453125 46.386451721191406
C 37.87757110595703 58.52009582519531 44.500553131103516
C 36.503623962402344 58.86939239501953 44.910888671875
H 36.15924835205078 59.709007263183594 44.30350112915039
H 35.794517517089844 58.04033660888672 44.862857818603516
H 36.555206298828125 59.20686340332031 45.948150634765625
C 38.098175048828125 58.01002502441406 43.290199279785156
H 39.139739990234375 57.84217834472656 43.020206451416016
C 37.052215576171875 57.739959716796875 42.2774543762207
H 36.02369689941406 57.897422790527344 42.59882736206055
C 37.3096923828125 57.32349395751953 41.014522552490234
H 38.367706298828125 57.19481658935547 40.79100799560547
C 36.39385986328125 57.24237060546875 39.90250778198242
H 35.366241455078125 57.60198974609375 39.878135681152344
C 36.612213134765625 56.51506805419922 38.822269439697266
C 37.92108154296875 55.881439208984375 38.55357360839844
H 37.84593963623047 55.182769775390625 37.71770477294922
H 38.63645935058594 56.61255645751953 38.1712532043457
H 38.34247589111328 55.430519104003906 39.454437255859375
C 35.555152893066406 56.46992492675781 37.810550689697266
H 35.421905517578125 55.54936981201172 37.244197845458984
C 34.67816925048828 57.43901062011719 37.52263259887695
H 34.72703552246094 58.44398498535156 37.93923568725586
C 33.57237243652344 57.171844482421875 36.5761604309082
H 33.660926818847656 56.310760498046875 35.9153938293457
C 32.515586853027344 57.94469451904297 36.40516662597656
C 32.364723205566406 59.16246032714844 37.18045425415039
H 32.07866668701172 58.99681854248047 38.22121810913086
H 33.29380798339844 59.735107421875 37.143829345703125
H 31.64645767211914 59.8890380859375 36.79492950439453
C 31.477840423583984 57.63958740234375 35.39368438720703
H 31.97610855102539 57.312286376953125 34.48234939575195
C 30.178295135498047 57.86161804199219 35.44204330444336
H 29.798702239990234 58.25956726074219 36.3819694519043
C 29.12448501586914 57.53160095214844 34.46654510498047
C 29.275043487548828 56.550010681152344 33.57980728149414
C 30.414165496826172 55.60316467285156 33.465476989746094
H 30.811748504638672 55.504112243652344 34.477691650390625
H 30.178211212158203 54.584808349609375 33.14966583251953
H 31.21811294555664 55.90419006347656 32.790557861328125
C 28.277973175048828 56.210540771484375 32.528411865234375
H 27.749034881591797 55.390098571777344 33.01786804199219
H 28.677875518798828 55.91130828857422 31.557329177856445
C 27.347171783447266 57.44573974609375 32.194698333740234
H 26.562862396240234 57.20497131347656 31.474037170410156
H 27.929248809814453 58.27290344238281 31.78306007385254
C 26.745349884033203 57.83567810058594 33.55778884887695
H 25.993106842041016 58.613189697265625 33.40924072265625
H 26.325725555419922 56.943809509277344 34.02785110473633
C 27.819622039794922 58.33173370361328 34.527008056640625
C 27.94687271118164 59.86766815185547 34.25065231323242
H 28.588184356689453 60.086212158203125 33.394248962402344
H 26.971294403076172 60.29139709472656 34.00333786010742
H 28.393245697021484 60.377593994140625 35.10691452026367
C 27.140064239501953 58.36314392089844 35.87417984008789
H 26.087078094482422 58.65234375 35.868194580078125
H 26.939395904541016 57.31915283203125 36.123722076416016
H 27.704204559326172 58.912864685058594 36.630496978759766
