207
Triad, Carotenoid-Porphyrin-C60
C 33.52568817138672 52.348052978515625 40.46144485473633
C 36.18122482299805 47.469154357910156 37.053009033203125
C 35.43693542480469 47.49220275878906 39.152984619140625
C 33.90552520751953 48.7884521484375 40.5649299621582
C 35.965110778808594 48.7900390625 35.06144714355469
C 36.73107147216797 48.30583953857422 36.0849494934082
C 34.04122543334961 47.639442443847656 35.96968460083008
C 33.06199264526367 47.645301818847656 38.658172607421875
C 31.808448791503906 51.82203674316406 39.07675552368164
C 34.607887268066406 48.4305419921875 34.98625183105469
C 33.103973388671875 51.075828552246094 40.751224517822266
C 35.4400749206543 52.32893371582031 34.96161651611328
C 36.34641647338867 50.0517578125 34.75846481323242
C 33.98432922363281 53.61570739746094 36.353633880615234
C 32.018768310546875 52.46949768066406 36.78858947753906
C 32.86827087402344 53.45184326171875 37.099586486816406
C 34.059139251708984 50.73455810546875 34.4256591796875
C 32.75913619995117 48.156211853027344 36.30868911743164
C 32.27033615112305 48.149147033691406 37.62205505371094
C 31.27355194091797 50.33567810058594 37.26139831542969
C 38.00091552734375 50.821502685546875 39.77410125732422
C 38.21440505981445 50.80730438232422 38.22726821899414
C 37.288639068603516 49.45526123046875 39.90223693847656
C 37.37071990966797 48.75237274169922 38.72023391723633
C 34.58180618286133 53.911170959472656 38.454254150390625
C 37.860355377197266 51.878700256347656 37.3951301574707
C 34.05613327026367 50.086769104003906 41.112117767333984
C 36.54489517211914 52.65209197998047 35.70262908935547
C 37.33806610107422 50.41999816894531 35.62682342529297
C 35.06727600097656 53.94725799560547 37.152095794677734
C 36.10487747192383 49.27007293701172 40.58647537231445
C 33.27987289428711 51.82920837402344 34.849639892578125
C 32.16790008544922 51.660301208496094 35.65275192260742
C 31.510473251342773 49.24542236328125 38.06760787963867
C 32.49020004272461 49.24237060546875 35.495235443115234
C 37.12982940673828 52.04419708251953 40.28176498413086
C 36.690555572509766 53.05181884765625 39.2274169921875
C 35.77739334106445 51.73236846923828 40.87398147583008
C 35.374229431152344 53.45405578613281 39.50149154663086
C 31.333187103271484 51.66033935546875 37.734683990478516
C 37.96001052856445 49.54063415527344 37.710670471191406
C 35.40449905395508 50.38201904296875 41.109310150146484
C 34.862789154052734 52.704017639160156 40.53103256225586
C 35.200897216796875 48.33148193359375 40.24698257446289
C 33.24288558959961 53.60357666015625 38.36642837524414
C 37.107749938964844 52.95018768310547 37.907588958740234
C 37.516849517822266 51.68476104736328 36.05002212524414
C 36.541568756103516 47.704261779785156 38.36540985107422
C 37.631103515625 49.35277557373047 36.411991119384766
C 31.71784019470215 50.35240936279297 35.9261589050293
C 36.31250762939453 53.417388916015625 36.86996841430664
C 32.74211883544922 52.8067626953125 39.394657135009766
C 34.79551315307617 47.260658264160156 37.024269104003906
C 34.34648513793945 47.23101043701172 38.371334075927734
C 32.77317428588867 48.43998718261719 39.83578872680664
C 32.060543060302734 50.74821472167969 39.924102783203125
C 35.35590362548828 51.02812194824219 34.493404388427734
C 34.178924560546875 52.79066467285156 35.24309539794922
C 31.8941650390625 49.45722961425781 39.3897705078125
C 33.663848876953125 49.42901611328125 34.71656036376953
C 39.29158401489258 50.82252502441406 40.54092788696289
N 39.32399368286133 51.758148193359375 41.438053131103516
C 38.193843841552734 52.64000701904297 41.366580963134766
H 38.53696060180664 53.658935546875 41.16982650756836
H 37.818363189697266 52.63706970214844 42.393062591552734
C 42.60540008544922 47.93299865722656 40.29934310913086
C 42.77821350097656 49.32427215576172 40.05078887939453
H 43.76339340209961 49.733299255371094 39.841773986816406
C 41.65818405151367 50.214630126953125 40.0077018737793
H 41.75175857543945 51.296478271484375 39.95857238769531
C 40.38025665283203 49.812767028808594 40.357723236083984
C 41.29243850708008 47.54991912841797 40.64323806762695
H 41.10407638549805 46.54106903076172 41.00144577026367
C 40.22163009643555 48.44404602050781 40.74136734008789
H 39.24069595336914 48.09620666503906 41.05498123168945
C 43.73493957519531 46.98914337158203 40.3409538269043
C 45.040035247802734 47.581459045410156 40.17653274536133
C 45.641258239746094 48.25884246826172 39.07486343383789
H 45.1417350769043 48.63450622558594 38.18796920776367
C 47.05723190307617 48.16297149658203 39.19850158691406
H 47.67924118041992 48.571937561035156 38.409149169921875
C 47.29899215698242 47.677818298339844 40.43867111206055
N 46.0788688659668 47.402679443359375 41.04230880737305
H 45.92262649536133 46.88628387451172 41.89731979370117
C 48.57749557495117 47.314720153808594 41.01338577270508
H 49.43878173828125 47.81512451171875 40.57326889038086
C 48.79043197631836 46.604469299316406 42.20504379272461
C 50.045528411865234 46.136863708496094 42.65114974975586
H 51.03315734863281 46.48084259033203 42.362186431884766
C 49.78929901123047 45.341835021972656 43.774532318115234
H 50.54606246948242 44.804893493652344 44.33687210083008
C 48.37469482421875 45.374755859375 43.962955474853516
N 47.786460876464844 46.07542419433594 42.910274505615234
C 47.674800872802734 44.75940704345703 45.080928802490234
C 46.6602783203125 43.88582992553711 44.8375358581543
C 46.52096176147461 42.522308349609375 45.32083511352539
H 47.17041778564453 42.17694091796875 46.11842727661133
C 45.4946174621582 41.937435150146484 44.64231491088867
H 45.156341552734375 40.91183853149414 44.74698257446289
C 44.92768859863281 42.82080841064453 43.67631912231445
N 45.69816589355469 43.935157775878906 43.89497756958008
H 45.55183029174805 44.69147491455078 43.240230560302734
C 43.90802764892578 42.70623016357422 42.73030471801758
H 43.495826721191406 41.70942306518555 42.58065414428711
C 43.48797607421875 43.754703521728516 41.76046371459961
C 42.59440231323242 43.66640853881836 40.63680648803711
H 42.025699615478516 42.78072738647461 40.3734245300293
C 42.669071197509766 44.908302307128906 39.97101593017578
H 42.275787353515625 45.291038513183594 39.035030364990234
C 43.51604461669922 45.70600128173828 40.7432975769043
N 44.066062927246094 44.96052551269531 41.673831939697266
C 48.47502899169922 45.790977478027344 49.1692008972168
C 47.618247985839844 44.75701904296875 48.85422134399414
H 46.930782318115234 44.43867492675781 49.633724212646484
C 47.262943267822266 44.59022521972656 47.5197868347168
H 46.38215255737305 43.99160385131836 47.3020133972168
C 48.017173767089844 45.098236083984375 46.47196578979492
C 49.219078063964844 46.41377258300781 48.16262435913086
H 49.90849304199219 47.196693420410156 48.46811294555664
C 49.01917266845703 45.993324279785156 46.823787689208984
H 49.6033821105957 46.518043518066406 46.07217025756836
N 48.666160583496094 46.05216979980469 50.56308364868164
H 47.829376220703125 45.94983673095703 51.11752700805664
C 49.711917877197266 46.487022399902344 51.29121780395508
O 50.727779388427734 46.862892150878906 50.75312423706055
C 49.569801330566406 46.49120330810547 52.80411148071289
C 50.75448226928711 46.78462219238281 53.504337310791016
H 51.68219757080078 46.99815368652344 52.9796257019043
C 50.643775939941406 46.93165588378906 54.90595626831055
C 49.38508987426758 46.74822998046875 55.523799896240234
H 49.25260543823242 46.92340087890625 56.588375091552734
C 48.23276901245117 46.389060974121094 54.818119049072266
H 47.32074737548828 46.31694793701172 55.40513229370117
C 48.381446838378906 46.20960235595703 53.44572830200195
H 47.44706726074219 46.046119689941406 52.91489791870117
C 51.81805419921875 47.159912109375 55.71053695678711
H 52.69038009643555 47.21632385253906 55.061092376708984
C 51.99825668334961 47.38922119140625 57.01204299926758
H 51.14950942993164 47.509132385253906 57.6837272644043
C 53.36334991455078 47.56609344482422 57.65164566040039
C 53.30827713012695 48.719512939453125 58.552310943603516
H 52.40243148803711 49.296409606933594 58.35457229614258
H 54.18138122558594 49.34424591064453 58.352657318115234
H 53.239356994628906 48.363128662109375 59.582218170166016
C 54.466880798339844 46.83709716796875 57.397403717041016
H 54.44636535644531 45.96586608886719 56.74435806274414
C 55.73271560668945 47.119178771972656 58.0055046081543
H 55.725528717041016 47.772804260253906 58.87650680541992
C 56.9343376159668 46.718292236328125 57.538082122802734
H 56.8729362487793 45.99552917480469 56.725826263427734
C 58.24028015136719 47.109527587890625 58.01230239868164
C 59.2393684387207 47.17115783691406 56.97256851196289
H 59.59329605102539 48.20252227783203 56.91360855102539
H 60.099464416503906 46.59574890136719 57.321292877197266
H 58.825889587402344 46.8634033203125 56.00986862182617
C 58.51948165893555 47.219871520996094 59.290531158447266
H 57.70829772949219 47.105613708496094 60.0080680847168
C 59.77346420288086 47.572540283203125 59.99845504760742
H 60.682403564453125 47.51184844970703 59.4017448425293
C 59.904422760009766 48.226837158203125 61.16975784301758
H 59.046539306640625 48.54243469238281 61.76166915893555
C 61.22553253173828 48.6640625 61.56795883178711
H 62.02288818359375 48.53120422363281 60.83823776245117
C 61.55387878417969 49.397613525390625 62.661678314208984
C 60.53956604003906 49.671783447265625 63.68394088745117
H 60.990638732910156 50.297393798828125 64.45698547363281
H 59.7195930480957 50.23622131347656 63.23503494262695
H 60.103172302246094 48.781005859375 64.14060974121094
C 62.94051742553711 49.650123596191406 63.11525344848633
H 62.99355697631836 50.2333984375 64.03334045410156
C 64.0363540649414 49.433380126953125 62.41670608520508
H 63.89833450317383 48.90503692626953 61.47451400756836
C 65.33570098876953 49.78266906738281 62.92811965942383
H 65.25505828857422 49.99980926513672 63.9921989440918
C 66.51725006103516 49.9385986328125 62.33030319213867
C 66.68528747558594 49.42683410644531 60.9503059387207
H 66.03057098388672 48.56598663330078 60.799503326416016
H 66.32209777832031 50.17938232421875 60.24728775024414
H 67.6823501586914 49.046958923339844 60.71787643432617
C 67.69983673095703 50.40924072265625 62.94333267211914
H 68.56684112548828 50.50126647949219 62.29084396362305
C 67.88619232177734 50.795936584472656 64.23078918457031
H 67.03227233886719 50.711021423339844 64.90126037597656
C 69.10086822509766 51.27723693847656 64.86105346679688
C 69.9966049194336 52.135398864746094 64.25316619873047
C 69.76539611816406 52.929359436035156 63.04354476928711
H 69.6866683959961 54.00880432128906 63.18867874145508
H 70.55717468261719 52.7164306640625 62.3222770690918
H 68.76878356933594 52.63093566894531 62.71163558959961
C 71.25321197509766 52.538330078125 64.97372436523438
H 71.25224304199219 53.62639617919922 64.88117218017578
H 72.17633056640625 52.141448974609375 64.54617309570312
C 71.27654266357422 52.22864532470703 66.45288848876953
H 70.54443359375 52.771507263183594 67.05436706542969
H 72.27398681640625 52.40534210205078 66.86074829101562
C 70.97261810302734 50.68047332763672 66.56954193115234
H 71.6338882446289 50.190528869628906 65.85181427001953
H 71.09284973144531 50.24957275390625 67.56570434570312
C 69.46373748779297 50.48548126220703 66.14227294921875
C 69.30923461914062 48.95747375488281 66.14036560058594
H 68.27973175048828 48.669090270996094 65.91805267333984
H 69.98204803466797 48.46466064453125 65.43544006347656
H 69.56658935546875 48.560150146484375 67.12442779541016
C 68.55026245117188 50.79725646972656 67.3587646484375
H 68.52595520019531 51.888450622558594 67.39287567138672
H 67.53013610839844 50.46350860595703 67.15771484375
H 68.99614715576172 50.32038116455078 68.23412322998047
