207
Triad, Carotenoid-Porphyrin-C60
C 56.966270446777344 35.16653823852539 51.14767074584961
C 51.582420349121094 35.34555435180664 54.64179611206055
C 51.77149200439453 34.61198043823242 52.447994232177734
C 53.659523010253906 33.834922790527344 51.045658111572266
C 52.787147521972656 35.787986755371094 56.6896858215332
C 52.073158264160156 36.25751495361328 55.598758697509766
C 52.71282958984375 33.576019287109375 55.71845626831055
C 53.013954162597656 32.57121276855469 53.03757858276367
C 57.27167510986328 33.483856201171875 52.6330680847168
C 53.214561462402344 34.44105529785156 56.6927375793457
C 56.023681640625 34.16392135620117 50.90645980834961
C 56.17284393310547 37.06562042236328 56.64924240112305
C 53.79271697998047 36.70849609375 56.851192474365234
C 57.91847229003906 36.27231979370117 55.26609420776367
C 57.810264587402344 33.90917205810547 54.900997161865234
C 58.329559326171875 35.17446517944336 54.48688888549805
C 55.5029296875 35.004302978515625 57.41315841674805
C 53.69657897949219 32.66379928588867 55.44100570678711
C 53.88624572753906 32.21989440917969 54.10444259643555
C 56.258384704589844 32.289710998535156 54.45335006713867
C 53.562347412109375 38.48320007324219 51.816585540771484
C 53.47642517089844 38.696041107177734 53.34001541137695
C 52.693458557128906 37.17056655883789 51.7359733581543
C 52.069488525390625 36.97248840332031 52.91043472290039
C 57.935462951660156 36.88288497924805 53.11294937133789
C 54.55390930175781 38.96561050415039 54.15217971801758
C 54.72028350830078 34.55436325073242 50.618892669677734
C 55.847557067871094 38.143714904785156 55.80765914916992
C 53.56341552734375 37.798683166503906 56.037776947021484
C 57.73320007324219 37.35640335083008 54.39693069458008
C 53.049034118652344 36.04125213623047 50.99031448364258
C 56.720420837402344 34.90555953979492 56.8714485168457
C 57.034393310546875 33.78474807739258 56.03645706176758
C 55.16050720214844 31.916154861450195 53.62307357788086
C 54.759742736816406 32.99415588378906 56.2210578918457
C 55.04228973388672 38.28346252441406 51.31032180786133
C 56.130653381347656 38.309200286865234 52.360050201416016
C 55.334320068359375 36.908748626708984 50.72208786010742
C 57.06153869628906 37.354522705078125 52.10140609741211
C 57.34791564941406 33.085750579833984 53.93687057495117
C 52.49364471435547 37.836971282958984 53.86453628540039
C 54.34931182861328 35.9257698059082 50.51613998413086
C 56.604637145996094 36.5084114074707 51.07648849487305
C 52.629539489746094 34.738948822021484 51.30784225463867
C 58.322113037109375 35.55497741699219 53.14652633666992
C 55.85260772705078 38.72978973388672 53.65719985961914
C 54.592262268066406 38.54589080810547 55.486881256103516
C 51.543792724609375 35.74129867553711 53.28178024291992
C 52.527442932128906 37.442420959472656 55.18796157836914
C 56.06896209716797 32.809898376464844 55.73112106323242
C 56.697021484375 38.27388000488281 54.70255661010742
C 57.738014221191406 34.70781326293945 52.17268753051758
C 51.91034698486328 34.02927780151367 54.61472702026367
C 52.05541229248047 33.55753707885742 53.28984451293945
C 53.84815979003906 32.754249572753906 51.94466018676758
C 56.200904846191406 33.11914825439453 51.79892349243164
C 55.120025634765625 36.361900329589844 57.20151901245117
C 57.14265441894531 36.12312698364258 56.3855094909668
C 55.12467956542969 32.34086990356445 52.28574752807617
C 54.50294494628906 34.0881233215332 57.03542709350586
C 52.98344421386719 39.57347869873047 50.95829391479492
N 53.86309051513672 40.167850494384766 50.19343948364258
C 55.15850830078125 39.45845031738281 50.274784088134766
H 55.924774169921875 40.18083572387695 50.56743240356445
H 55.420074462890625 39.12179946899414 49.26835250854492
C 48.63130187988281 40.25432205200195 50.950565338134766
C 49.47472381591797 40.7982063293457 51.92996597290039
H 49.01448059082031 41.46445083618164 52.65513229370117
C 50.89850616455078 40.615570068359375 51.97404098510742
H 51.582794189453125 40.98872756958008 52.73171615600586
C 51.54304504394531 39.85207748413086 50.98713302612305
C 49.339111328125 39.46196365356445 50.03220748901367
H 48.82350158691406 39.10121154785156 49.145877838134766
C 50.73297882080078 39.3987922668457 49.97146987915039
H 51.20820617675781 38.955841064453125 49.09995651245117
C 47.19574737548828 40.59919357299805 50.905696868896484
C 46.66468811035156 41.62923812866211 51.78554916381836
C 46.569297790527344 41.675315856933594 53.13131332397461
H 46.94013977050781 40.94158172607422 53.839359283447266
C 45.842185974121094 42.826316833496094 53.41611862182617
H 45.598716735839844 43.24002456665039 54.3891487121582
C 45.611328125 43.51604080200195 52.2838020324707
N 45.944419860839844 42.64731216430664 51.2861213684082
H 45.937774658203125 42.94697952270508 50.32057571411133
C 44.76177978515625 44.7052116394043 52.09537124633789
H 44.759681701660156 45.39269256591797 52.939937591552734
C 43.97019958496094 45.12525939941406 51.0334358215332
C 43.0623779296875 46.252662658691406 51.03042221069336
H 42.73591613769531 46.970184326171875 51.775943756103516
C 42.566131591796875 46.24970245361328 49.70711135864258
H 41.784996032714844 46.85430908203125 49.25822067260742
C 43.19297790527344 45.151527404785156 48.98604965209961
N 43.98960876464844 44.43289566040039 49.821041107177734
C 42.80121612548828 44.68640899658203 47.67110061645508
C 42.52733612060547 43.35557174682617 47.46975326538086
C 41.576934814453125 42.661598205566406 46.64414596557617
H 40.792564392089844 43.13325500488281 46.06145095825195
C 42.00590515136719 41.31690216064453 46.471981048583984
H 41.568992614746094 40.54744338989258 45.84407424926758
C 43.059486389160156 41.06011962890625 47.381351470947266
N 43.320068359375 42.28470993041992 47.883609771728516
H 44.13896179199219 42.449989318847656 48.4530143737793
C 43.690521240234375 39.878211975097656 47.580204010009766
H 43.245079040527344 39.0131950378418 47.091068267822266
C 44.808746337890625 39.62094497680664 48.497074127197266
C 45.50614929199219 38.33977127075195 48.799808502197266
H 45.36085510253906 37.34140396118164 48.40059280395508
C 46.411773681640625 38.69657897949219 49.7790412902832
H 47.07177734375 38.03916931152344 50.3353157043457
C 46.459205627441406 40.07068634033203 49.90574264526367
N 45.44090270996094 40.592979431152344 49.21828842163086
C 42.47813415527344 47.58826446533203 44.42117691040039
C 42.38562774658203 46.22505569458008 44.21104049682617
H 42.08501434326172 45.77684783935547 43.26747512817383
C 42.547828674316406 45.28189468383789 45.246768951416016
H 42.508567810058594 44.226036071777344 44.9914436340332
C 42.7332763671875 45.728057861328125 46.54545211791992
C 42.82374572753906 47.99164581298828 45.7447624206543
H 42.88134002685547 49.05958938598633 45.93903732299805
C 43.03437042236328 47.05244064331055 46.7413444519043
H 43.367210388183594 47.440277099609375 47.70070266723633
N 42.00170135498047 48.57018280029297 43.50779342651367
H 42.021995544433594 49.469669342041016 43.96451187133789
C 41.32768249511719 48.40156173706055 42.3600959777832
O 41.27806091308594 47.3087272644043 41.85116958618164
C 41.014610290527344 49.72200393676758 41.66990280151367
C 41.34465026855469 50.99585723876953 42.22904586791992
H 41.718910217285156 51.21004104614258 43.22685623168945
C 40.97692108154297 52.16403579711914 41.5681266784668
C 40.27849197387695 52.02762222290039 40.3619499206543
H 39.924285888671875 52.85587692260742 39.75358963012695
C 39.911827087402344 50.78433609008789 39.817012786865234
H 39.39861297607422 50.79145812988281 38.858821868896484
C 40.2987174987793 49.618553161621094 40.49800491333008
H 40.16945266723633 48.64131164550781 40.0399055480957
C 41.3831787109375 53.420433044433594 42.22141647338867
H 42.006858825683594 53.382144927978516 43.11330795288086
C 41.08500671386719 54.64748764038086 41.70443344116211
H 40.502559661865234 54.65990447998047 40.78437423706055
C 41.55232238769531 55.911739349365234 42.19511032104492
C 41.51842498779297 56.17023468017578 43.6909294128418
H 42.41668701171875 56.688777923583984 44.03255081176758
H 41.375946044921875 55.25785827636719 44.273799896240234
H 40.64679718017578 56.77214050292969 43.95632553100586
C 42.01276397705078 56.888404846191406 41.38252639770508
H 42.054840087890625 56.6330451965332 40.32472610473633
C 42.595375061035156 58.177398681640625 41.73894119262695
H 42.39228057861328 58.43809509277344 42.77659225463867
C 43.3626708984375 58.83719253540039 40.872684478759766
H 43.53187561035156 58.39328384399414 39.89277267456055
C 44.104408264160156 60.034461975097656 41.074947357177734
C 45.22477722167969 60.25530242919922 40.16939926147461
H 45.15643310546875 61.25010681152344 39.72426223754883
H 46.072662353515625 60.226383209228516 40.8569450378418
H 45.323760986328125 59.56936264038086 39.325504302978516
C 44.000328063964844 60.759098052978516 42.24326705932617
H 43.22511291503906 60.41343307495117 42.925533294677734
C 44.96699523925781 61.627803802490234 42.8365592956543
H 45.85591125488281 61.94305419921875 42.29214859008789
C 44.80158233642578 62.20329666137695 44.0064811706543
H 43.920654296875 61.932037353515625 44.58639144897461
C 45.63072967529297 63.19362258911133 44.65255355834961
H 46.608055114746094 63.3546257019043 44.19997024536133
C 45.39378356933594 63.81367874145508 45.78660202026367
C 44.42131805419922 63.19490432739258 46.83175277709961
H 44.519073486328125 63.5110969543457 47.87238693237305
H 43.374534606933594 63.33529281616211 46.55424118041992
H 44.551185607910156 62.114585876464844 46.92405319213867
C 46.299034118652344 64.77335357666016 46.397274017333984
H 45.981903076171875 64.97552490234375 47.41926956176758
C 47.33991241455078 65.46238708496094 45.83024215698242
H 47.59513854980469 65.12933349609375 44.8253288269043
C 48.22907257080078 66.36185455322266 46.56679153442383
H 48.32756805419922 66.16925811767578 47.634090423583984
C 49.04254913330078 67.31957244873047 46.0794563293457
C 49.07774353027344 67.64141845703125 44.6413688659668
H 50.08447265625 67.48487091064453 44.24837112426758
H 48.35223388671875 66.98890686035156 44.1511344909668
H 48.77971649169922 68.68791198730469 44.54922866821289
C 49.82305908203125 68.18757629394531 46.89932632446289
H 49.516517639160156 68.27450561523438 47.940670013427734
C 50.83472442626953 69.01256561279297 46.4919548034668
H 51.09387969970703 68.96578979492188 45.43526840209961
C 51.446136474609375 70.09471130371094 47.32085037231445
C 51.483360290527344 71.35264587402344 46.8702507019043
C 50.74005889892578 71.8644027709961 45.64836502075195
H 50.878936767578125 71.28218078613281 44.73502731323242
H 49.65303039550781 71.88328552246094 45.75070571899414
H 51.017784118652344 72.91874694824219 45.58759689331055
C 52.184478759765625 72.464599609375 47.554012298583984
H 51.44905090332031 73.27070617675781 47.59653091430664
H 53.029998779296875 72.75941467285156 46.92900466918945
C 52.769309997558594 72.04263305664062 48.97336196899414
H 51.96691131591797 72.13561248779297 49.70820236206055
H 53.57111358642578 72.73194122314453 49.24618148803711
C 53.30851745605469 70.65355682373047 48.920955657958984
H 54.05223083496094 70.63261413574219 48.12163162231445
H 53.87793731689453 70.28018188476562 49.774662017822266
C 52.177703857421875 69.62852478027344 48.60627365112305
C 52.81846618652344 68.28397369384766 48.41506576538086
H 53.4625244140625 68.39456176757812 47.54018020629883
H 53.47767639160156 67.92044067382812 49.206111907958984
H 52.12651824951172 67.47067260742188 48.18657302856445
C 51.251075744628906 69.49724578857422 49.80092239379883
H 51.64430236816406 69.99706268310547 50.68862533569336
H 50.296104431152344 69.94774627685547 49.5224494934082
H 51.07002258300781 68.44010162353516 50.006160736083984
