207
Triad, Carotenoid-Porphyrin-C60
C 39.30195617675781 50.450538635253906 63.253047943115234
C 42.77225875854492 53.24407196044922 58.510616302490234
C 41.852787017822266 51.1473388671875 58.577754974365234
C 40.109439849853516 49.973411560058594 59.82529067993164
C 42.3774299621582 55.404945373535156 59.68374252319336
C 43.23286819458008 54.300193786621094 59.371883392333984
C 40.62082290649414 54.400169372558594 58.369380950927734
C 39.53472900390625 51.88212585449219 58.46540832519531
C 37.71708297729492 51.85582733154297 62.426780700683594
C 41.101097106933594 55.48162841796875 59.156253814697266
C 39.084312438964844 50.12876892089844 61.928951263427734
C 41.5342903137207 55.9361572265625 63.10676574707031
C 42.676536560058594 55.923439025878906 60.93748092651367
C 39.772491455078125 54.660728454589844 64.30364227294922
C 37.90272521972656 54.208526611328125 62.83979797363281
C 38.69673538208008 53.86546325683594 63.949771881103516
C 40.33622360229492 56.348182678222656 61.26568603515625
C 39.242576599121094 54.250396728515625 58.632591247558594
C 38.72015380859375 52.97309112548828 58.731414794921875
C 37.503562927246094 53.61101531982422 60.720947265625
C 43.94892883300781 50.78150939941406 62.2655029296875
C 44.232887268066406 52.290740966796875 62.18794250488281
C 43.3934211730957 50.50164031982422 60.82041931152344
C 43.7112922668457 51.624305725097656 59.989871978759766
C 40.280372619628906 52.55047607421875 64.76225280761719
C 43.818843841552734 53.27978515625 63.13341522216797
C 40.07902908325195 49.55835723876953 61.13475036621094
C 42.51598358154297 55.06266784667969 63.632503509521484
C 43.63291931152344 55.01490020751953 61.4710693359375
C 40.77286911010742 53.81791687011719 64.84424591064453
C 42.22951889038086 49.82855987548828 60.59256362915039
C 39.46263122558594 56.04693603515625 62.28424835205078
C 38.394432067871094 55.254669189453125 62.01141357421875
C 37.82733917236328 52.621826171875 59.732032775878906
C 38.981971740722656 55.199951171875 59.672698974609375
C 43.00602340698242 50.451873779296875 63.427207946777344
C 42.444190979003906 51.64592742919922 64.21978759765625
C 41.646339416503906 49.881935119628906 62.976707458496094
C 41.1160774230957 51.495460510253906 64.53508758544922
C 37.397483825683594 53.19819641113281 62.041221618652344
C 44.2655143737793 52.726295471191406 60.79694747924805
C 41.39982986450195 49.48204040527344 61.63300323486328
C 40.59868621826172 50.44164276123047 63.73845291137695
C 41.43758010864258 50.15845489501953 59.45601272583008
C 38.907936096191406 52.564552307128906 64.33953857421875
C 42.932308197021484 52.933441162109375 64.14187622070312
C 43.5666618347168 54.68293762207031 62.84185028076172
C 43.07101058959961 51.87855529785156 58.832496643066406
C 43.925872802734375 54.077735900878906 60.48348617553711
C 38.11835479736328 54.90888977050781 60.71250915527344
C 42.106651306152344 54.02513122558594 64.48784637451172
C 38.502376556396484 51.54893493652344 63.53697204589844
C 41.44231414794922 53.31663513183594 58.083614349365234
C 40.86994552612305 52.033836364746094 58.1036262512207
C 39.175838470458984 50.88356018066406 59.33583068847656
C 38.10914611816406 51.00823974609375 61.42821502685547
C 41.65216827392578 56.32050323486328 61.770729064941406
C 40.196197509765625 55.730743408203125 63.44649124145508
C 38.10801315307617 51.34143829345703 60.09788513183594
C 40.058326721191406 56.00230407714844 59.944664001464844
C 45.17725372314453 49.88319396972656 62.604957580566406
N 45.07476043701172 49.252037048339844 63.6865234375
C 43.831119537353516 49.55364227294922 64.3653335571289
H 44.113746643066406 50.04967498779297 65.2973861694336
H 43.26875305175781 48.64604949951172 64.59918212890625
C 48.40901184082031 48.96178436279297 59.834259033203125
C 47.56178283691406 47.91957092285156 60.38755416870117
H 47.748985290527344 46.893638610839844 60.08096694946289
C 46.48750305175781 48.28412628173828 61.22853469848633
H 45.77776336669922 47.52952575683594 61.55781173706055
C 46.31078338623047 49.63185119628906 61.666419982910156
C 48.051124572753906 50.28460693359375 60.079994201660156
H 48.42718505859375 51.072242736816406 59.43209457397461
C 47.03065490722656 50.62713623046875 61.024658203125
H 46.862579345703125 51.695228576660156 61.136451721191406
C 49.52826690673828 48.65452575683594 58.922943115234375
C 49.785736083984375 47.19739532470703 58.66987228393555
C 50.24689483642578 46.2855224609375 59.56237030029297
H 50.44884490966797 46.47467803955078 60.61149215698242
C 50.488746643066406 45.099510192871094 58.83284378051758
H 50.87860870361328 44.17381286621094 59.243099212646484
C 50.16264343261719 45.34600830078125 57.550350189208984
N 49.725502014160156 46.61127471923828 57.47414779663086
H 49.44920349121094 47.02705383300781 56.59499740600586
C 50.21455383300781 44.45630645751953 56.41171646118164
H 50.16124725341797 43.403785705566406 56.68608093261719
C 50.32801055908203 44.86846923828125 55.0904541015625
C 49.4613037109375 44.354530334472656 54.07936096191406
H 48.654632568359375 43.634429931640625 54.168701171875
C 49.6795654296875 45.152191162109375 53.010528564453125
H 49.151283264160156 45.19641876220703 52.06385803222656
C 50.86949157714844 45.899818420410156 53.3790168762207
N 51.199851989746094 45.78533172607422 54.669586181640625
C 51.70567321777344 46.80841827392578 52.577308654785156
C 51.88282775878906 48.12976837158203 52.91165542602539
C 52.12256622314453 49.240806579589844 52.039451599121094
H 52.25731658935547 49.18712615966797 50.96419143676758
C 52.09862518310547 50.421356201171875 52.813087463378906
H 52.21344757080078 51.46073913574219 52.523738861083984
C 51.8267822265625 50.085289001464844 54.21388244628906
N 51.5546875 48.72429656982422 54.1164665222168
H 51.31763458251953 48.220489501953125 54.96033477783203
C 51.73877716064453 50.880950927734375 55.29803466796875
H 52.0792236328125 51.89800262451172 55.109283447265625
C 51.312232971191406 50.59019470214844 56.633094787597656
C 51.435638427734375 51.38958740234375 57.820892333984375
H 52.02862548828125 52.280189514160156 58.000953674316406
C 50.72431945800781 50.70372772216797 58.82070541381836
H 50.72370910644531 50.97401428222656 59.871498107910156
C 50.22339630126953 49.611732482910156 58.20759201049805
N 50.726524353027344 49.425941467285156 56.992713928222656
C 53.98841094970703 44.882606506347656 49.288368225097656
C 54.20243835449219 46.193023681640625 49.70399475097656
H 55.083473205566406 46.71551513671875 49.34018325805664
C 53.45879364013672 46.87638854980469 50.692352294921875
H 53.751953125 47.86450958251953 51.037662506103516
C 52.36247253417969 46.24254608154297 51.305747985839844
C 52.936363220214844 44.276771545410156 49.981224060058594
H 52.851295471191406 43.23265838623047 49.69112014770508
C 52.13487243652344 44.93280029296875 50.9227180480957
H 51.536109924316406 44.23066711425781 51.49724197387695
N 54.838966369628906 44.28722381591797 48.35230255126953
H 54.65287780761719 44.482391357421875 47.380008697509766
C 55.7728271484375 43.353294372558594 48.633033752441406
O 55.78797149658203 42.902427673339844 49.76006317138672
C 56.67394256591797 42.933006286621094 47.49079132080078
C 56.56285858154297 43.44422149658203 46.206295013427734
H 55.766204833984375 44.14703369140625 45.976165771484375
C 57.294410705566406 43.02619934082031 45.100006103515625
C 58.41490173339844 42.260223388671875 45.356895446777344
H 59.042236328125 41.884857177734375 44.552459716796875
C 58.647064208984375 41.7545166015625 46.6362419128418
H 59.49340057373047 41.09962463378906 46.8270263671875
C 57.71185302734375 42.02251434326172 47.69255065917969
H 57.78459930419922 41.63941192626953 48.70720291137695
C 56.81682586669922 43.37786102294922 43.705780029296875
H 55.937904357910156 44.02074432373047 43.69478988647461
C 57.264495849609375 42.88421630859375 42.526424407958984
H 58.212493896484375 42.350669860839844 42.47591018676758
C 56.79253387451172 43.21632385253906 41.24037551879883
C 57.694610595703125 42.75178527832031 40.10891342163086
H 57.647727966308594 41.696998596191406 39.830223083496094
H 58.732200622558594 43.046546936035156 40.2791862487793
H 57.49174499511719 43.18983459472656 39.12941360473633
C 55.569671630859375 43.62999725341797 40.937530517578125
H 54.83710479736328 43.886497497558594 41.701385498046875
C 55.004425048828125 43.97212219238281 39.645416259765625
H 55.550819396972656 43.79844665527344 38.71955871582031
C 53.810394287109375 44.600486755371094 39.565738677978516
H 53.29608917236328 44.867759704589844 40.4876823425293
C 53.09718322753906 44.99818420410156 38.34408187866211
C 51.71461486816406 45.37471008300781 38.47979736328125
H 51.214195251464844 44.584991455078125 37.9155387878418
H 51.38817596435547 45.313934326171875 39.52009201049805
H 51.46814727783203 46.298980712890625 37.95308303833008
C 53.685020446777344 45.183631896972656 37.21175003051758
H 54.70420837402344 44.82941436767578 37.064369201660156
C 53.15118408203125 45.63067626953125 35.892333984375
H 52.138397216796875 46.011619567871094 35.76955032348633
C 53.95313262939453 45.698097229003906 34.826534271240234
H 54.9920654296875 45.40106964111328 34.96181869506836
C 53.45954132080078 46.20674133300781 33.52561569213867
H 52.37671661376953 46.21376037597656 33.410011291503906
C 54.098602294921875 46.63422393798828 32.44233322143555
C 55.531333923339844 46.43860626220703 32.34111785888672
H 55.922157287597656 47.344871520996094 31.873775482177734
H 56.20734405517578 46.216087341308594 33.16934585571289
H 55.567283630371094 45.55809020996094 31.696243286132812
C 53.41117858886719 47.01325225830078 31.183307647705078
H 52.47704315185547 47.54387664794922 31.361522674560547
C 53.799400329589844 46.870567321777344 29.85630226135254
H 54.727294921875 46.37206268310547 29.57986068725586
C 52.87762451171875 47.407630920410156 28.80146026611328
H 51.826393127441406 47.47581481933594 29.077470779418945
C 53.10662078857422 47.80213928222656 27.558658599853516
C 54.445350646972656 47.720123291015625 27.06916046142578
H 54.488182067871094 48.06230926513672 26.03304672241211
H 55.014984130859375 48.45427703857422 27.642738342285156
H 54.85565185546875 46.715301513671875 27.189376831054688
C 52.04840850830078 48.25413513183594 26.635236740112305
H 52.24633026123047 48.177490234375 25.567119598388672
C 50.86981201171875 48.81146240234375 26.969345092773438
H 50.76227569580078 49.0035400390625 28.035869598388672
C 49.74158477783203 49.266807556152344 26.17867088317871
C 49.39146423339844 48.75104522705078 24.97554588317871
C 49.973854064941406 47.61212158203125 24.284095764160156
H 50.23545837402344 46.87931823730469 25.050268173217773
H 49.30259704589844 47.046478271484375 23.634531021118164
H 50.798912048339844 47.94386291503906 23.650312423706055
C 48.3096923828125 49.26356506347656 24.0297794342041
H 47.806671142578125 48.447425842285156 23.50695037841797
H 48.89081573486328 49.83079528808594 23.299699783325195
C 47.19683837890625 50.048248291015625 24.81390380859375
H 46.60480499267578 49.50231170654297 25.55141258239746
H 46.562286376953125 50.441802978515625 24.017086029052734
C 47.966468811035156 51.05244445800781 25.7064151763916
H 48.496498107910156 51.786109924316406 25.095457077026367
H 47.24217224121094 51.654701232910156 26.25881576538086
C 48.925132751464844 50.435546875 26.735004425048828
C 49.611305236816406 51.74048614501953 27.310760498046875
H 50.411094665527344 51.66192626953125 28.050106048583984
H 50.134376525878906 52.274208068847656 26.514514923095703
H 48.933677673339844 52.43267822265625 27.814897537231445
C 48.08232879638672 49.96807098388672 27.97852325439453
H 47.698204040527344 48.986549377441406 27.693012237548828
H 48.66203308105469 49.81726837158203 28.89158058166504
H 47.32914733886719 50.711585998535156 28.24751091003418
