207
Triad, Carotenoid-Porphyrin-C60
C 55.2962532043457 63.59737014770508 45.24190139770508
C 53.563594818115234 63.62643814086914 51.46657180786133
C 55.639591217041016 63.8053092956543 50.591552734375
C 56.55562210083008 64.350341796875 48.47517013549805
C 51.24175262451172 63.891719818115234 50.769412994384766
C 52.2737922668457 63.110652923583984 51.20467758178711
C 52.765682220458984 65.76043701171875 50.72514343261719
C 55.39567184448242 66.04871368408203 49.73722839355469
C 54.483333587646484 65.6987533569336 45.39229202270508
C 51.43212890625 65.3051528930664 50.57216262817383
C 56.12575912475586 64.30375671386719 46.119361877441406
C 49.89118957519531 63.18399429321289 47.61557388305664
C 50.47280502319336 63.202884674072266 49.916221618652344
C 50.91958236694336 63.76203536987305 45.5002326965332
C 52.096797943115234 65.88448333740234 45.64595413208008
C 51.9208869934082 64.63284301757812 45.02842330932617
C 50.18376541137695 65.13507843017578 48.614471435546875
C 53.05429458618164 66.66397857666016 49.74461364746094
C 54.337947845458984 66.83747863769531 49.264137268066406
C 53.410640716552734 67.04203796386719 47.0568733215332
C 54.59854507446289 60.16067123413086 48.51032638549805
C 53.2006721496582 60.33657455444336 49.02150344848633
C 55.30183029174805 61.27602005004883 49.315616607666016
C 54.46944046020508 61.6933708190918 50.26520919799805
C 52.747493743896484 62.5400276184082 44.87190246582031
C 52.06325149536133 60.419368743896484 48.1766242980957
C 56.5839958190918 63.66805648803711 47.247989654541016
C 50.423580169677734 61.84550094604492 47.46378707885742
C 51.0038948059082 61.9019889831543 49.76215362548828
C 51.504459381103516 62.47663497924805 45.3991813659668
C 56.24679946899414 62.16948318481445 48.85204315185547
C 50.28470230102539 65.360595703125 47.2473258972168
C 51.291324615478516 66.21155548095703 46.71482467651367
C 54.56058120727539 67.10224151611328 47.851478576660156
C 51.89942932128906 66.84497833251953 48.93116760253906
C 54.80524826049805 60.321651458740234 46.961456298828125
C 53.531314849853516 60.62008285522461 46.19741439819336
C 55.663028717041016 61.58193588256836 46.54708480834961
C 53.77116775512695 61.66275405883789 45.358516693115234
C 53.36726760864258 66.40768432617188 45.841087341308594
C 53.24440383911133 61.15329360961914 50.15448760986328
C 56.415767669677734 62.34835433959961 47.43812942504883
C 55.05244064331055 62.23250198364258 45.510704040527344
C 56.42243576049805 63.45132827758789 49.49075698852539
C 53.03842544555664 63.850032806396484 44.58517837524414
C 52.2816276550293 60.669795989990234 46.83533477783203
C 50.96999740600586 61.23495864868164 48.53731155395508
C 54.6578483581543 62.895626068115234 50.928466796875
C 52.139408111572266 61.91457748413086 50.56590270996094
C 52.13938522338867 66.91645812988281 47.57550811767578
C 51.23259735107422 61.55136489868164 46.39009475708008
C 54.297733306884766 64.42053985595703 44.80588912963867
C 53.75149154663086 64.9457015991211 51.23888397216797
C 55.076175689697266 65.07994842529297 50.768470764160156
C 56.149959564208984 65.68050384521484 48.60449981689453
C 55.562618255615234 65.58279418945312 46.22637176513672
C 49.876399993896484 63.79799270629883 48.833648681640625
C 50.076351165771484 64.15391540527344 46.60874938964844
C 55.65311813354492 66.3030776977539 47.424503326416016
C 50.96260070800781 65.93206024169922 49.45599365234375
C 55.14541244506836 58.77738571166992 48.76603698730469
N 55.54439163208008 58.18265914916992 47.70637512207031
C 55.42998123168945 58.96213150024414 46.50360870361328
H 54.85691452026367 58.38010025024414 45.7773323059082
H 56.39901351928711 59.08230209350586 46.01249313354492
C 55.43843460083008 56.54684066772461 52.45698165893555
C 54.27323532104492 57.1641960144043 52.08587646484375
H 53.33366012573242 57.128719329833984 52.63132095336914
C 54.23732376098633 57.90981674194336 50.904052734375
H 53.308773040771484 58.440120697021484 50.7087516784668
C 55.34060287475586 58.01115036010742 50.03779983520508
C 56.55534744262695 56.614261627197266 51.52186965942383
H 57.41141891479492 55.961490631103516 51.67222213745117
C 56.47298049926758 57.29533004760742 50.31078338623047
H 57.283260345458984 57.3067741394043 49.58628845214844
C 55.429264068603516 55.733882904052734 53.73866271972656
C 54.20108413696289 55.709774017333984 54.53299331665039
C 53.504276275634766 56.71455764770508 55.045989990234375
H 53.7679557800293 57.751834869384766 54.86774826049805
C 52.54982376098633 56.14390182495117 55.97849655151367
H 51.836456298828125 56.66580581665039 56.60774612426758
C 52.74348068237305 54.8022346496582 56.031368255615234
N 53.74045944213867 54.5488395690918 55.12602233886719
H 54.15024185180664 53.64872360229492 54.91628646850586
C 52.07991409301758 53.873592376708984 56.852935791015625
H 51.41322708129883 54.433956146240234 57.50672912597656
C 52.38142776489258 52.65230941772461 57.31026077270508
C 51.746646881103516 51.92497634887695 58.36909866333008
H 50.841712951660156 52.220645904541016 58.88957977294922
C 52.419376373291016 50.72768020629883 58.38634490966797
H 52.43010330200195 49.82087326049805 58.98200225830078
C 53.3896598815918 50.76005172729492 57.33734130859375
N 53.33100509643555 51.9352912902832 56.67256546020508
C 54.3781852722168 49.72781753540039 56.91943359375
C 55.71303176879883 50.04238510131836 56.754947662353516
C 56.85561752319336 49.467594146728516 57.50059509277344
H 56.75737380981445 48.58669662475586 58.12636947631836
C 58.01008987426758 50.20417404174805 57.15666961669922
H 59.04304122924805 50.01857376098633 57.43198776245117
C 57.620304107666016 51.31509017944336 56.315406799316406
N 56.30948257446289 51.08761215209961 56.07661056518555
H 55.77396774291992 51.561283111572266 55.36177444458008
C 58.33754348754883 52.38666915893555 55.80433654785156
H 59.40213394165039 52.20601272583008 55.94556427001953
C 57.970027923583984 53.62217330932617 55.12729263305664
C 58.72068405151367 54.77499771118164 54.715110778808594
H 59.76914596557617 54.98648452758789 54.897377014160156
C 57.77108383178711 55.60920333862305 54.16033172607422
H 58.02377700805664 56.5966911315918 53.78852081298828
C 56.5248908996582 55.01539993286133 54.18402862548828
N 56.664249420166016 53.85625076293945 54.90321350097656
C 52.72574996948242 46.16791915893555 55.08134841918945
C 54.13199996948242 46.492252349853516 55.13569259643555
H 54.74270248413086 45.83963394165039 54.51706314086914
C 54.668941497802734 47.57693862915039 55.785247802734375
H 55.696651458740234 47.91267013549805 55.672725677490234
C 53.817996978759766 48.481021881103516 56.369686126708984
C 51.894954681396484 47.02861404418945 55.765968322753906
H 50.815345764160156 46.96207046508789 55.65831756591797
C 52.47506332397461 48.198909759521484 56.38730239868164
H 51.81292724609375 48.99733352661133 56.712371826171875
N 52.272640228271484 45.04542922973633 54.33993911743164
H 53.04428482055664 44.5152702331543 53.963661193847656
C 51.094886779785156 44.9466438293457 53.70976638793945
O 50.19930648803711 45.762874603271484 53.7889404296875
C 50.985782623291016 43.646785736083984 52.86371994018555
C 50.115203857421875 43.6558952331543 51.81017303466797
H 49.540462493896484 44.538639068603516 51.541831970214844
C 49.85451126098633 42.44358444213867 51.11605453491211
C 50.526363372802734 41.2675895690918 51.46845245361328
H 50.30023193359375 40.3488655090332 50.93330764770508
C 51.46044921875 41.24143600463867 52.504356384277344
H 51.957645416259766 40.32465744018555 52.810760498046875
C 51.60940933227539 42.44858169555664 53.241336822509766
H 52.25273513793945 42.49269485473633 54.11641311645508
C 48.71683883666992 42.38503646850586 50.188255310058594
H 48.15692138671875 43.318477630615234 50.221431732177734
C 48.342166900634766 41.31832504272461 49.45282745361328
H 48.842262268066406 40.35850143432617 49.57355880737305
C 47.204795837402344 41.21805953979492 48.49263000488281
C 46.81894302368164 42.41640090942383 47.721710205078125
H 45.73725128173828 42.56589126586914 47.7293586730957
H 47.1929817199707 42.29240036010742 46.70328903198242
H 47.22993087768555 43.26863479614258 48.26691436767578
C 46.55671310424805 40.00617599487305 48.219242095947266
H 46.89255905151367 39.165958404541016 48.82518005371094
C 45.50674819946289 39.7779655456543 47.15854263305664
H 45.18056869506836 40.61318588256836 46.54052734375
C 45.02592468261719 38.557621002197266 46.93442153930664
H 45.2618293762207 37.7680549621582 47.646358489990234
C 43.85089111328125 38.20077896118164 46.09140396118164
C 43.66886901855469 39.088443756103516 44.89215087890625
H 42.99875259399414 39.91506576538086 45.1373176574707
H 44.636898040771484 39.46133041381836 44.55105209350586
H 43.169681549072266 38.495601654052734 44.122859954833984
C 43.107276916503906 37.07793045043945 46.23636245727539
H 43.31714630126953 36.553592681884766 47.16746139526367
C 42.13325500488281 36.48299789428711 45.32536697387695
H 42.263526916503906 36.56528854370117 44.24732208251953
C 41.199363708496094 35.64133071899414 45.697059631347656
H 40.929115295410156 35.46377182006836 46.736942291259766
C 40.383338928222656 34.89115524291992 44.72419357299805
H 40.378971099853516 35.27725601196289 43.7059440612793
C 39.66713333129883 33.79740524291992 44.95505142211914
C 39.538204193115234 33.239253997802734 46.280147552490234
H 38.70545959472656 33.71098709106445 46.805946350097656
H 39.29290008544922 32.17813491821289 46.200721740722656
H 40.457130432128906 33.44814682006836 46.831878662109375
C 38.933406829833984 33.113834381103516 43.899688720703125
H 39.17274856567383 33.43063735961914 42.885650634765625
C 37.903419494628906 32.28469467163086 44.08891677856445
H 37.45710372924805 31.932552337646484 45.01774597167969
C 37.2856330871582 31.583881378173828 42.95570373535156
H 37.999446868896484 31.416927337646484 42.15039825439453
C 36.09889602661133 30.983402252197266 42.790279388427734
C 35.04853820800781 31.203197479248047 43.88235092163086
H 34.589107513427734 30.26019287109375 44.185890197753906
H 35.387420654296875 31.770122528076172 44.751956939697266
H 34.267032623291016 31.747478485107422 43.348060607910156
C 35.749046325683594 30.230602264404297 41.53787612915039
H 36.40922546386719 30.368133544921875 40.68278884887695
C 34.78171157836914 29.346847534179688 41.39936065673828
H 34.23596954345703 28.99008560180664 42.2716064453125
C 34.497215270996094 28.670883178710938 40.12718200683594
C 33.947265625 29.34563446044922 39.087738037109375
C 33.977630615234375 30.86862564086914 38.97067642211914
H 33.22539520263672 31.27518081665039 39.64988327026367
H 34.94243240356445 31.27022933959961 39.28744125366211
H 33.663719177246094 31.080951690673828 37.94654846191406
C 33.60164260864258 28.727035522460938 37.80221176147461
H 34.290740966796875 29.038997650146484 37.01462936401367
H 32.68720245361328 29.173450469970703 37.40599822998047
C 33.49725341796875 27.159015655517578 37.85978698730469
H 33.562232971191406 26.78427505493164 36.836158752441406
H 32.506256103515625 26.90060806274414 38.23875045776367
C 34.62710189819336 26.610755920410156 38.74846267700195
H 34.55891418457031 25.52090835571289 38.75544738769531
H 35.649803161621094 26.755054473876953 38.39388656616211
C 34.49601745605469 27.162357330322266 40.214874267578125
C 33.29484558105469 26.559906005859375 40.88398361206055
H 33.14100646972656 25.50290298461914 40.65696334838867
H 33.36037826538086 26.64041519165039 41.971038818359375
H 32.35660934448242 27.09085464477539 40.70996856689453
C 35.682701110839844 26.609031677246094 40.919105529785156
H 35.689430236816406 26.86983871459961 41.9794807434082
H 35.85396957397461 25.561561584472656 40.662315368652344
H 36.508663177490234 27.155841827392578 40.45949935913086
