207
Triad, Carotenoid-Porphyrin-C60
C 49.113609313964844 60.86674499511719 35.95914840698242
C 51.5980339050293 63.65254592895508 41.222110748291016
C 52.62040328979492 62.286861419677734 39.724849700927734
C 52.24570083618164 61.50894546508789 37.421627044677734
C 49.52653503417969 65.06444549560547 41.332435607910156
C 50.296085357666016 63.960018157958984 41.74774932861328
C 51.28474044799805 65.5474853515625 39.73688888549805
C 52.587406158447266 63.840843200683594 37.89166259765625
C 49.18372344970703 62.97675323486328 35.27695083618164
C 50.036808013916016 65.86373901367188 40.30367660522461
C 50.45723342895508 61.1666259765625 35.845516204833984
C 46.405235290527344 64.324951171875 39.84456253051758
C 48.18567657470703 64.74748992919922 41.43180465698242
C 46.05854415893555 63.57679748535156 37.59926223754883
C 47.660247802734375 64.49503326416016 36.21232986450195
C 46.7302360534668 63.522491455078125 36.3875732421875
C 47.82168960571289 65.94241333007812 39.325782775878906
C 51.22634506225586 65.83488464355469 38.39165115356445
C 51.83163070678711 64.91814422607422 37.481754302978516
C 49.866310119628906 65.07088470458984 36.108280181884766
C 49.36289596557617 59.581031799316406 40.53416061401367
C 48.761844635009766 60.780643463134766 41.31230926513672
C 50.75324630737305 60.26921463012695 40.383750915527344
C 50.95565414428711 61.34780502319336 41.20124053955078
C 46.70624923706055 61.439781188964844 37.14191818237305
C 47.500572204589844 61.25577926635742 41.16459655761719
C 51.29994583129883 60.65300369262695 36.9180793762207
C 46.31326675415039 63.02809524536133 40.360984802246094
C 48.117698669433594 63.418819427490234 41.87385559082031
C 46.05390930175781 62.237205505371094 38.05441665649414
C 51.42136764526367 60.310791015625 39.14579772949219
C 47.178592681884766 65.58621978759766 38.160255432128906
C 47.88169479370117 65.56938934326172 37.016849517822266
C 51.163204193115234 64.57673645019531 36.2940788269043
C 49.90861511230469 66.32939147949219 38.11893081665039
C 48.62285614013672 59.17374801635742 39.24293899536133
C 47.4670295715332 60.022369384765625 38.946285247802734
C 49.440818786621094 59.487937927246094 37.98675537109375
C 47.41987228393555 60.41792678833008 37.640174865722656
C 48.851219177246094 64.2530746459961 35.56248474121094
C 49.76799011230469 61.60224151611328 41.82093048095703
C 50.760990142822266 59.90489196777344 37.98809051513672
C 48.618995666503906 60.062408447265625 37.01187515258789
C 52.35098648071289 61.28260040283203 38.788970947265625
C 47.10877990722656 62.197444915771484 36.11137390136719
C 46.93088912963867 60.90699768066406 39.89187240600586
C 47.16159439086914 62.58613586425781 41.43940353393555
C 51.8776969909668 62.31568145751953 40.897090911865234
C 49.37871170043945 62.943687438964844 42.05134582519531
C 49.25128936767578 65.99744415283203 36.98543930053711
C 46.15185546875 61.98863220214844 39.47300720214844
C 48.329471588134766 61.94078063964844 35.57807922363281
C 52.07814407348633 64.45153045654297 40.186588287353516
C 52.7481575012207 63.585105895996094 39.2928581237793
C 52.2802619934082 62.85226821899414 36.977874755859375
C 50.490596771240234 62.48063659667969 35.39925765991211
C 47.335086822509766 65.1912841796875 40.40571975708008
C 46.28449630737305 64.58514404296875 38.49749755859375
C 51.4365348815918 63.2864875793457 36.0257453918457
C 49.199005126953125 66.2889633178711 39.324119567871094
C 49.42414855957031 58.29582214355469 41.28766632080078
N 48.693748474121094 57.358055114746094 40.834896087646484
C 48.27302932739258 57.657413482666016 39.42859649658203
H 47.2037467956543 57.47496032714844 39.2944450378418
H 48.870643615722656 57.01383972167969 38.77796936035156
C 50.892086029052734 58.2973747253418 45.423797607421875
C 49.5660285949707 58.27179718017578 45.09632110595703
H 48.81941604614258 58.24907684326172 45.886024475097656
C 49.145782470703125 58.23634338378906 43.76130676269531
H 48.076114654541016 58.09606170654297 43.628257751464844
C 49.959720611572266 58.257286071777344 42.664756774902344
C 51.79452896118164 58.227394104003906 44.34577941894531
H 52.871646881103516 58.17485427856445 44.48228454589844
C 51.33396530151367 58.32522201538086 42.96949768066406
H 52.095706939697266 58.26424789428711 42.19644546508789
C 51.3767204284668 58.22076416015625 46.842952728271484
C 50.34354019165039 58.123573303222656 47.83368682861328
C 49.452369689941406 59.0150146484375 48.29823684692383
H 49.335472106933594 59.97972869873047 47.815650939941406
C 48.721702575683594 58.402549743652344 49.36252975463867
H 47.94755935668945 58.9486083984375 49.891441345214844
C 49.30924987792969 57.19011688232422 49.6318473815918
N 50.25124740600586 56.998146057128906 48.6651496887207
H 50.86032485961914 56.204586029052734 48.51881790161133
C 49.0088996887207 56.20900344848633 50.63545608520508
H 48.14738082885742 56.52292251586914 51.222957611083984
C 49.60103225708008 55.089542388916016 51.03852081298828
C 49.26642608642578 54.38896560668945 52.177303314208984
H 48.31532287597656 54.48290252685547 52.690921783447266
C 50.30253982543945 53.5366096496582 52.42915725708008
H 50.34677505493164 52.69225311279297 53.109107971191406
C 51.31332015991211 53.79179000854492 51.44896697998047
N 50.90352249145508 54.75994873046875 50.69051742553711
C 52.57352828979492 53.147159576416016 51.196014404296875
C 53.77000045776367 53.914459228515625 50.95014953613281
C 55.135623931884766 53.92531967163086 51.48088073730469
H 55.48202133178711 53.308467864990234 52.30351638793945
C 55.86806869506836 54.89288330078125 50.779232025146484
H 56.932247161865234 55.075504302978516 50.886024475097656
C 55.02663803100586 55.5844612121582 49.874855041503906
N 53.8283805847168 55.002742767333984 50.091129302978516
H 53.043094635009766 55.24369430541992 49.50172805786133
C 55.36759567260742 56.56710433959961 48.9835090637207
H 56.41946792602539 56.84787368774414 48.95783615112305
C 54.50651168823242 57.313480377197266 48.0853271484375
C 54.894039154052734 58.31336212158203 47.19703674316406
H 55.87746810913086 58.76511001586914 47.1195182800293
C 53.716373443603516 58.82500076293945 46.66822052001953
H 53.60683059692383 59.761531829833984 46.13143539428711
C 52.67970657348633 58.03437042236328 47.11263656616211
N 53.17258071899414 57.185428619384766 47.97767639160156
C 52.85007858276367 48.83763122558594 50.994510650634766
C 54.07181930541992 49.61484146118164 50.87916946411133
H 55.02395248413086 49.12360763549805 50.69560623168945
C 53.94461441040039 51.019676208496094 50.89450454711914
H 54.85172653198242 51.5618896484375 50.64009475708008
C 52.7005729675293 51.66733932495117 51.0794563293457
C 51.65188217163086 49.47309875488281 51.10736083984375
H 50.73524856567383 48.891475677490234 51.16267013549805
C 51.5555534362793 50.84688186645508 51.150596618652344
H 50.58418655395508 51.33429718017578 51.17182159423828
N 52.93928146362305 47.46125793457031 50.997589111328125
H 53.680599212646484 47.14046859741211 50.39292526245117
C 52.4011344909668 46.54803466796875 51.824527740478516
O 51.54268264770508 46.71582794189453 52.623355865478516
C 53.02626419067383 45.149234771728516 51.64789962768555
C 52.40785598754883 43.97560501098633 52.145626068115234
H 51.480098724365234 44.072853088378906 52.70363235473633
C 53.093746185302734 42.774017333984375 52.22108459472656
C 54.38261795043945 42.705299377441406 51.6397819519043
H 54.90421676635742 41.76520538330078 51.80016326904297
C 54.9356575012207 43.76662063598633 50.96037673950195
H 55.92647171020508 43.676212310791016 50.52255630493164
C 54.28580856323242 45.0295524597168 51.01864242553711
H 54.82515335083008 45.88832473754883 50.62724685668945
C 52.51972579956055 41.67191696166992 53.05900192260742
H 51.58450698852539 42.050804138183594 53.468536376953125
C 52.86570358276367 40.39306640625 53.31058120727539
H 53.74600601196289 40.05675506591797 52.76478958129883
C 52.145999908447266 39.3541259765625 53.98463821411133
C 52.85464096069336 38.08431625366211 54.12352752685547
H 52.73324203491211 37.762638092041016 55.15998458862305
H 53.90834426879883 38.216796875 53.86930465698242
H 52.43747329711914 37.393104553222656 53.38822555541992
C 50.84767532348633 39.493797302246094 54.288368225097656
H 50.36476516723633 40.37736892700195 53.87360382080078
C 50.02304458618164 38.50522994995117 54.89973831176758
H 50.614566802978516 37.61582946777344 55.111839294433594
C 48.66863250732422 38.56215286254883 54.990623474121094
H 48.21501922607422 39.492591857910156 54.65232467651367
C 47.814945220947266 37.48417282104492 55.461360931396484
C 46.3416633605957 37.76504898071289 55.19412612915039
H 45.81468200683594 36.87211227416992 54.85145568847656
H 45.76557922363281 37.99641036987305 56.09249496459961
H 46.16144943237305 38.54838180541992 54.454952239990234
C 48.10729217529297 36.29610061645508 56.0207405090332
H 49.17173385620117 36.066139221191406 56.024993896484375
C 47.23374557495117 35.27699661254883 56.608245849609375
H 46.22245407104492 35.59305953979492 56.859867095947266
C 47.661827087402344 34.00788879394531 56.88534164428711
H 48.64921188354492 33.63092041015625 56.62288284301758
C 46.66788101196289 33.008121490478516 57.28982925415039
H 45.76371765136719 33.38038635253906 57.769229888916016
C 46.672000885009766 31.737056732177734 57.16242218017578
C 47.73453903198242 31.016483306884766 56.413230895996094
H 47.44935607910156 30.018964767456055 56.072509765625
H 47.94777297973633 31.489486694335938 55.452362060546875
H 48.591575622558594 30.878931045532227 57.07582473754883
C 45.53156280517578 30.843036651611328 57.567901611328125
H 45.77709197998047 29.795652389526367 57.737083435058594
C 44.20651626586914 31.170108795166016 57.50774383544922
H 43.80718231201172 32.123931884765625 57.166168212890625
C 43.17082595825195 30.146480560302734 57.738529205322266
H 43.55668258666992 29.129940032958984 57.67782974243164
C 41.9786376953125 30.24752426147461 58.345741271972656
C 41.57575225830078 31.45009994506836 59.048561096191406
H 41.071842193603516 32.24080276489258 58.488807678222656
H 41.04263687133789 31.161521911621094 59.956844329833984
H 42.462955474853516 31.890838623046875 59.507999420166016
C 41.095794677734375 29.09847068786621 58.57728958129883
H 40.29318618774414 29.328426361083984 59.2764778137207
C 41.13597869873047 27.8480167388916 58.05809783935547
H 41.9113655090332 27.62030792236328 57.3281364440918
C 40.2127685546875 26.735260009765625 58.31831741333008
C 38.869728088378906 26.851301193237305 58.43074417114258
C 38.02375411987305 27.970693588256836 58.14468002319336
H 37.003353118896484 27.717554092407227 57.849456787109375
H 37.98320388793945 28.71666717529297 58.94113540649414
H 38.57026672363281 28.45223045349121 57.33110046386719
C 37.99080276489258 25.676040649414062 58.82033920288086
H 37.044918060302734 25.610450744628906 58.27861404418945
H 37.79188537597656 25.806270599365234 59.88614273071289
C 38.64289855957031 24.366046905517578 58.64436340332031
H 38.68408203125 24.11618995666504 57.58212661743164
H 38.07960891723633 23.54064178466797 59.08467483520508
C 40.07484817504883 24.43414306640625 59.21489334106445
H 40.06462478637695 24.645488739013672 60.286197662353516
H 40.5140495300293 23.436899185180664 59.14362335205078
C 40.95372009277344 25.380735397338867 58.485572814941406
C 42.312957763671875 25.471288681030273 59.15772247314453
H 42.21772003173828 25.860544204711914 60.17353439331055
H 42.798065185546875 24.49295997619629 59.1610107421875
H 42.92228317260742 26.204904556274414 58.62575149536133
C 41.32841110229492 24.820877075195312 57.1630744934082
H 40.57046890258789 24.869314193725586 56.37845230102539
H 42.19364929199219 25.324583053588867 56.72705841064453
H 41.558677673339844 23.754404067993164 57.20863342285156
