207
Triad, Carotenoid-Porphyrin-C60
C 51.98222351074219 50.01018142700195 41.19072341918945
C 50.33197784423828 50.89896011352539 47.40277862548828
C 49.23114776611328 51.51045608520508 45.495235443115234
C 49.10870361328125 50.905555725097656 43.14859390258789
C 51.928443908691406 49.39091491699219 48.062232971191406
C 51.51795196533203 50.68177032470703 47.929080963134766
C 49.799659729003906 48.55189895629883 47.13965606689453
C 48.512184143066406 49.29877853393555 44.832733154296875
C 51.297401428222656 47.89654541015625 41.71650695800781
C 51.12224578857422 48.3129997253418 47.670162200927734
C 50.65838623046875 50.04371643066406 41.553245544433594
C 54.858642578125 48.428077697753906 46.11650848388672
C 53.25067901611328 49.30900573730469 47.7410774230957
C 54.74378967285156 47.892051696777344 43.80289077758789
C 52.75187683105469 46.69722366333008 43.228179931640625
C 53.871368408203125 47.401859283447266 42.8038215637207
C 53.015625 47.1699333190918 46.68688201904297
C 49.582000732421875 47.569393157958984 46.12960433959961
C 48.86943054199219 47.94536590576172 44.97538375854492
C 50.50872039794922 46.66749954223633 43.68288803100586
C 52.817832946777344 53.41556930541992 44.39935302734375
C 53.47179412841797 52.72108840942383 45.61354064941406
C 51.336456298828125 53.16931915283203 44.722694396972656
C 51.23944854736328 52.777339935302734 46.02777099609375
C 54.53535461425781 49.50046920776367 42.262229919433594
C 54.538734436035156 51.827938079833984 45.50760269165039
C 50.120147705078125 51.04229736328125 42.243797302246094
C 55.241310119628906 49.71651077270508 45.767311096191406
C 53.67463684082031 50.64289474487305 47.43132019042969
C 55.11119079589844 49.15963363647461 43.47355270385742
C 50.47114562988281 52.71125411987305 43.73067092895508
C 53.56224060058594 46.647953033447266 45.523460388183594
C 52.551368713378906 46.2895393371582 44.5416374206543
C 49.34972381591797 47.4991455078125 43.7479133605957
C 50.73670196533203 46.76911163330078 46.01927947998047
C 53.31525421142578 52.98283386230469 42.98993682861328
C 54.286643981933594 51.82840347290039 43.114776611328125
C 52.27992248535156 52.18926239013672 42.116764068603516
C 54.05598449707031 50.81560516357422 42.17318344116211
C 51.48387145996094 46.878662109375 42.661991119384766
C 52.45690155029297 52.535614013671875 46.610755920410156
C 50.94084167480469 52.151214599609375 42.533042907714844
C 52.80796813964844 51.061153411865234 41.561607360839844
C 49.37855529785156 51.882469177246094 44.16147994995117
C 53.68964385986328 48.441036224365234 41.92918014526367
C 54.960166931152344 51.376792907714844 44.2938232421875
C 54.62860870361328 50.79365158081055 46.43388366699219
C 50.162086486816406 51.95077133178711 46.44678497314453
C 52.577178955078125 51.49870300292969 47.558956146240234
C 51.18852233886719 46.324214935302734 44.83382034301758
C 55.42607116699219 50.07673645019531 44.46849060058594
C 52.395355224609375 48.67290115356445 41.36465072631836
C 49.46269989013672 49.859092712402344 47.00696563720703
C 48.749534606933594 50.26959991455078 45.85615921020508
C 48.722625732421875 49.60851287841797 43.48560333251953
C 50.201499938964844 48.73052215576172 41.846946716308594
C 53.859764099121094 48.23540496826172 47.05069351196289
C 54.556861877441406 47.53955841064453 45.1197624206543
C 49.20691680908203 48.5183219909668 42.81591033935547
C 51.62788391113281 47.19502639770508 47.027366638183594
C 53.23675537109375 54.903324127197266 44.36175537109375
N 53.96696472167969 55.19869613647461 43.291648864746094
C 53.98918914794922 54.14211654663086 42.23384475708008
H 55.00214385986328 53.89017105102539 41.90965270996094
H 53.33106231689453 54.53465270996094 41.454463958740234
C 51.92726135253906 57.99738693237305 47.13416290283203
C 51.13081359863281 57.528785705566406 46.0776252746582
H 50.11003112792969 57.86231994628906 45.90931701660156
C 51.617469787597656 56.57418441772461 45.178157806396484
H 51.13420104980469 56.26321792602539 44.255489349365234
C 52.78985595703125 55.89908981323242 45.378204345703125
C 53.16521453857422 57.38994598388672 47.38701248168945
H 53.82121276855469 57.78224563598633 48.159881591796875
C 53.5548095703125 56.355262756347656 46.50505447387695
H 54.520484924316406 55.85810852050781 46.548343658447266
C 51.364532470703125 59.0339469909668 48.12954330444336
C 49.94530487060547 59.429500579833984 47.852928161621094
C 49.423545837402344 60.128231048583984 46.78678894042969
H 49.927467346191406 60.37349319458008 45.85774230957031
C 48.162078857421875 60.545223236083984 47.224788665771484
H 47.440521240234375 61.13796615600586 46.67230224609375
C 47.93531036376953 60.22239303588867 48.49882125854492
N 48.98516845703125 59.442935943603516 48.86952209472656
H 49.065521240234375 59.020389556884766 49.78446578979492
C 46.82807922363281 60.40640640258789 49.37248611450195
H 46.012054443359375 60.95315933227539 48.902286529541016
C 46.63160705566406 60.008365631103516 50.669036865234375
C 45.5362548828125 60.36454391479492 51.513206481933594
H 44.74140167236328 61.00692367553711 51.14881896972656
C 45.801239013671875 59.87929916381836 52.76612854003906
H 45.37554168701172 60.1351432800293 53.73077392578125
C 47.049217224121094 59.18989944458008 52.678367614746094
N 47.631431579589844 59.34269332885742 51.43067169189453
C 47.91950988769531 58.61506271362305 53.76103591918945
C 49.26029968261719 58.880741119384766 54.09699249267578
C 49.79979705810547 59.38508987426758 55.31654357910156
H 49.28730773925781 59.40310287475586 56.27271270751953
C 51.08610534667969 59.89925003051758 54.9484977722168
H 51.78228759765625 60.38960647583008 55.62087631225586
C 51.30951690673828 59.740718841552734 53.56229782104492
N 50.17195129394531 59.17915725708008 53.17361831665039
H 49.979286193847656 59.0816764831543 52.185943603515625
C 52.39057159423828 60.0240592956543 52.7974967956543
H 53.242149353027344 60.44437026977539 53.330482482910156
C 52.50218963623047 59.85873794555664 51.35612106323242
C 53.550384521484375 60.361270904541016 50.56364440917969
H 54.44084167480469 60.87722396850586 50.907310485839844
C 53.217681884765625 60.07865524291992 49.254791259765625
H 53.72711944580078 60.338321685791016 48.33269119262695
C 52.02519989013672 59.38052749633789 49.263519287109375
N 51.610145568847656 59.279911041259766 50.552284240722656
C 45.89933776855469 55.717132568359375 56.212677001953125
C 47.19068908691406 56.0334358215332 56.47685241699219
H 47.75273895263672 55.58401107788086 57.29152297973633
C 47.88020324707031 57.08591842651367 55.766971588134766
H 48.87287139892578 57.432769775390625 56.042423248291016
C 47.24244689941406 57.68880844116211 54.62532424926758
C 45.21923828125 56.261993408203125 55.12977600097656
H 44.25709533691406 55.85891342163086 54.82420349121094
C 45.94419860839844 57.20252227783203 54.31988525390625
H 45.4603271484375 57.53874969482422 53.406436920166016
N 45.40528869628906 54.49454116821289 56.75009536743164
H 45.466148376464844 53.78089141845703 56.039398193359375
C 44.56710433959961 54.4444580078125 57.809410095214844
O 44.38974380493164 55.38766860961914 58.514976501464844
C 43.9697265625 53.10391616821289 58.143367767333984
C 44.205631256103516 51.991214752197266 57.39151382446289
H 44.896949768066406 52.07061767578125 56.55644226074219
C 43.46782684326172 50.821250915527344 57.64139175415039
C 42.63970947265625 50.74555969238281 58.74370193481445
H 42.11053466796875 49.796119689941406 58.754398345947266
C 42.41175842285156 51.854637145996094 59.54438018798828
H 41.62171173095703 51.90096664428711 60.28953170776367
C 42.995628356933594 53.06528854370117 59.14017105102539
H 42.7685661315918 53.97648239135742 59.68765640258789
C 43.75056457519531 49.63447189331055 56.8289680480957
H 44.358802795410156 49.99817657470703 56.002113342285156
C 43.396419525146484 48.34871292114258 56.962684631347656
H 42.87615966796875 48.069007873535156 57.877567291259766
C 43.76546859741211 47.25225067138672 56.107933044433594
C 42.95558547973633 46.01011657714844 56.2493782043457
H 43.493736267089844 45.32318878173828 56.905879974365234
H 42.73634719848633 45.556610107421875 55.28050231933594
H 42.003108978271484 46.14825439453125 56.76530075073242
C 44.63386535644531 47.354347229003906 55.11620330810547
H 45.252777099609375 48.24901580810547 55.06679916381836
C 45.05613327026367 46.31610107421875 54.164859771728516
H 44.67856216430664 45.31291198730469 54.357147216796875
C 45.7652587890625 46.58768844604492 53.073463439941406
H 46.0147705078125 47.630306243896484 52.882102966308594
C 46.060203552246094 45.624298095703125 52.0362663269043
C 46.74059295654297 46.223060607910156 50.834861755371094
H 46.155479431152344 46.16572952270508 49.91463088989258
H 47.03800964355469 47.259422302246094 51.007938385009766
H 47.702964782714844 45.7207145690918 50.71672439575195
C 45.77625274658203 44.31768798828125 52.08205795288086
H 45.17010498046875 44.002227783203125 52.92999267578125
C 46.07122802734375 43.218650817871094 51.12995147705078
H 46.474609375 43.46034622192383 50.1477165222168
C 45.75080108642578 41.955162048339844 51.373268127441406
H 45.275352478027344 41.713008880615234 52.322601318359375
C 46.03221893310547 40.83675003051758 50.49970626831055
H 46.81272888183594 41.053749084472656 49.77194595336914
C 45.452415466308594 39.61441421508789 50.48003005981445
C 44.48666763305664 39.15250015258789 51.53544998168945
H 43.54620361328125 39.69696807861328 51.42801284790039
H 44.42847442626953 38.06407928466797 51.46898651123047
H 44.922706604003906 39.27194595336914 52.52946472167969
C 45.799713134765625 38.69175720214844 49.37654495239258
H 46.678436279296875 39.00566864013672 48.815093994140625
C 45.27265930175781 37.56983947753906 48.949127197265625
H 44.50004577636719 37.14026641845703 49.58509826660156
C 45.85357666015625 36.85526657104492 47.81011962890625
H 46.38511657714844 37.451290130615234 47.06975173950195
C 45.858055114746094 35.51424026489258 47.60389709472656
C 45.38269805908203 34.615535736083984 48.59962844848633
H 44.290985107421875 34.60090637207031 48.61973571777344
H 45.677223205566406 33.574100494384766 48.45427703857422
H 45.90020751953125 34.809452056884766 49.54146194458008
C 46.669677734375 34.91618728637695 46.51996612548828
H 47.598838806152344 35.43796157836914 46.295623779296875
C 46.125205993652344 34.01486587524414 45.627662658691406
H 45.20611572265625 33.51008224487305 45.92160415649414
C 46.842933654785156 33.38560485839844 44.51119613647461
C 47.58015441894531 34.13641357421875 43.636146545410156
C 47.72124481201172 35.61605453491211 43.60828399658203
H 47.17597198486328 35.972713470458984 42.731964111328125
H 47.22138214111328 36.15089797973633 44.41856002807617
H 48.723976135253906 36.01290512084961 43.43650436401367
C 48.45990753173828 33.50031661987305 42.55519104003906
H 49.432167053222656 33.619571685791016 43.037841796875
H 48.498023986816406 34.10841369628906 41.64897537231445
C 48.27717590332031 32.0554313659668 42.17597961425781
H 49.06177520751953 31.533767700195312 41.62395095825195
H 47.47674560546875 31.967967987060547 41.438331604003906
C 47.980995178222656 31.355560302734375 43.52032470703125
H 47.957496643066406 30.296127319335938 43.25666427612305
H 48.825096130371094 31.497848510742188 44.19834518432617
C 46.69538116455078 31.881221771240234 44.1430778503418
C 45.494598388671875 31.58538818359375 43.27173614501953
H 45.252342224121094 30.520923614501953 43.24557113647461
H 44.63563919067383 32.118865966796875 43.684120178222656
H 45.560035705566406 31.907730102539062 42.23044967651367
C 46.36701202392578 31.06237030029297 45.394046783447266
H 45.393043518066406 31.22308349609375 45.860965728759766
H 46.44908142089844 30.02181625366211 45.073143005371094
H 47.180198669433594 31.185253143310547 46.11244583129883
