207
Triad, Carotenoid-Porphyrin-C60
C 57.92875289916992 65.17445373535156 52.648048400878906
C 53.31423568725586 66.2435531616211 48.30625915527344
C 53.1680793762207 66.08040618896484 50.48586654663086
C 54.523006439208984 66.18750762939453 52.460235595703125
C 54.87656784057617 66.84178161621094 46.56386184692383
C 54.02207565307617 65.90423583984375 47.15262985229492
C 54.36879348754883 68.42302703857422 48.37197494506836
C 54.128849029541016 68.14247131347656 51.062862396240234
C 58.25455856323242 67.3592529296875 52.096248626708984
C 55.089656829833984 68.07525634765625 47.19358444213867
C 56.8045539855957 65.88603210449219 53.034812927246094
C 58.38296127319336 65.80931854248047 46.69136428833008
C 55.99201583862305 66.08853912353516 46.15283966064453
C 59.7285270690918 66.00191497802734 48.73106384277344
C 59.19784164428711 67.9417724609375 50.00054168701172
C 59.76565170288086 66.66242218017578 49.954856872558594
C 57.48549270629883 67.81844329833984 46.9599494934082
C 55.17533493041992 69.25257110595703 49.15330123901367
C 55.052677154541016 69.05816650390625 50.55605697631836
C 57.497982025146484 69.21171569824219 50.67375564575195
C 55.06428909301758 62.315921783447266 49.8800048828125
C 55.35783004760742 62.761539459228516 48.414817810058594
C 54.05556869506836 63.35171890258789 50.328033447265625
C 53.63041305541992 64.05277252197266 49.22241973876953
C 59.31839370727539 64.50582122802734 50.344276428222656
C 56.640499114990234 62.97514724731445 47.882205963134766
C 55.545658111572266 65.3482894897461 52.88230514526367
C 58.1091423034668 64.50591278076172 47.01028060913086
C 55.8306999206543 64.73419952392578 46.453773498535156
C 59.43715286254883 64.69696044921875 48.97483444213867
C 54.17268753051758 64.07633209228516 51.548484802246094
C 58.62849044799805 67.79901885986328 47.770992279052734
C 58.69389724731445 68.5994644165039 48.90050506591797
C 56.241024017333984 69.02836608886719 51.30167770385742
C 56.424076080322266 69.3145980834961 48.53287124633789
C 56.3479118347168 62.311527252197266 50.79988479614258
C 57.657840728759766 62.7674674987793 50.04535675048828
C 56.43449020385742 63.29964828491211 51.977848052978516
C 58.414127349853516 63.61691665649414 50.89551544189453
C 58.459712982177734 68.32823181152344 51.13483810424805
C 54.394351959228516 63.670223236083984 48.0855827331543
C 55.32670211791992 64.07731628417969 52.32687759399414
C 57.7159538269043 63.90531539916992 52.0459098815918
C 53.692508697509766 65.430908203125 51.6279411315918
C 59.5560188293457 65.74470520019531 50.96529006958008
C 57.76559066772461 62.92919158935547 48.666893005371094
C 56.8560676574707 63.93128204345703 46.933170318603516
C 53.1380729675293 65.3327407836914 49.35234832763672
C 54.54085922241211 64.62016296386719 47.05923080444336
C 57.60805130004883 69.31954956054688 49.31356430053711
C 58.603755950927734 63.941741943359375 48.18647384643555
C 58.84560775756836 66.08589172363281 52.10395812988281
C 53.47671127319336 67.5091781616211 48.87403106689453
C 53.34597396850586 67.40028381347656 50.245792388916016
C 54.715999603271484 67.58515930175781 52.22171401977539
C 57.02336502075195 67.1974105834961 52.6788444519043
C 57.316463470458984 66.61591339111328 46.334327697753906
C 59.17300796508789 66.52472686767578 47.60424041748047
C 55.98190689086914 68.09384155273438 52.29823684692383
C 56.366703033447266 68.58988952636719 47.3270149230957
C 54.58049392700195 60.86405563354492 49.970115661621094
N 55.23379135131836 60.156978607177734 50.79155349731445
C 56.45016098022461 60.90180587768555 51.32453155517578
H 57.31070327758789 60.34908676147461 50.939029693603516
H 56.543521881103516 60.71688461303711 52.39772033691406
C 51.037776947021484 59.30853271484375 48.049800872802734
C 52.3228874206543 59.159881591796875 47.46112060546875
H 52.447879791259766 58.6447639465332 46.512123107910156
C 53.45884323120117 59.74418258666992 48.02791213989258
H 54.471622467041016 59.61941146850586 47.65337371826172
C 53.33329391479492 60.382545471191406 49.23127746582031
C 50.938907623291016 60.001976013183594 49.2769775390625
H 50.03181076049805 59.946319580078125 49.873348236083984
C 52.11026382446289 60.47737121582031 49.85190963745117
H 52.13505935668945 60.88093566894531 50.86091613769531
C 49.80830001831055 58.59098434448242 47.491920471191406
C 49.913997650146484 57.92482376098633 46.20143127441406
C 50.413089752197266 58.34688949584961 44.99382781982422
H 50.82766342163086 59.32662582397461 44.780601501464844
C 50.46345901489258 57.22572326660156 44.14580154418945
H 50.84092330932617 57.27726745605469 43.1298828125
C 49.80123519897461 56.174564361572266 44.7688102722168
N 49.45572280883789 56.65770721435547 45.960350036621094
H 48.98575210571289 56.134490966796875 46.68663787841797
C 49.3512077331543 54.92304229736328 44.21867370605469
H 49.66988754272461 54.769996643066406 43.18865203857422
C 48.56880569458008 53.948997497558594 44.73368835449219
C 48.08205032348633 52.84275436401367 44.026058197021484
H 48.339656829833984 52.52490234375 43.02115249633789
C 47.24184036254883 52.16265106201172 44.839439392089844
H 46.63356399536133 51.30900192260742 44.559242248535156
C 47.26503372192383 52.93990707397461 46.073036193847656
N 47.975833892822266 54.05518341064453 45.94362258911133
C 46.43489456176758 52.77568817138672 47.29134750366211
C 45.6916389465332 53.77436447143555 47.867897033691406
C 44.27713394165039 53.91447067260742 48.064632415771484
H 43.47517013549805 53.207061767578125 47.88121032714844
C 44.05922317504883 55.170528411865234 48.5094108581543
H 43.073604583740234 55.54725646972656 48.76213073730469
C 45.24624252319336 55.976585388183594 48.54765319824219
N 46.15213394165039 55.081092834472656 48.16243362426758
H 47.152828216552734 55.22402572631836 48.17972183227539
C 45.35543441772461 57.29512023925781 48.78679656982422
H 44.42942428588867 57.8132438659668 49.03169250488281
C 46.55769729614258 58.133995056152344 48.71595764160156
C 46.6836051940918 59.509517669677734 48.92250061035156
H 45.9835319519043 60.19554901123047 49.387779235839844
C 47.92190933227539 59.87968826293945 48.528587341308594
H 48.3485221862793 60.87568664550781 48.4719123840332
C 48.578609466552734 58.695735931396484 48.128047943115234
N 47.69453811645508 57.69228744506836 48.21556854248047
C 46.2741584777832 48.90410614013672 49.24787521362305
C 45.49209976196289 49.98039245605469 49.727317810058594
H 44.87593460083008 49.796512603759766 50.60373306274414
C 45.620174407958984 51.25187301635742 49.105072021484375
H 44.99612808227539 52.031898498535156 49.53368377685547
C 46.47825241088867 51.44108963012695 48.020023345947266
C 47.245243072509766 49.14057159423828 48.28389358520508
H 47.69124221801758 48.20589828491211 47.95368194580078
C 47.33681869506836 50.38269805908203 47.62725067138672
H 47.98250198364258 50.538002014160156 46.76669692993164
N 46.2796745300293 47.74666213989258 50.019405364990234
H 46.599552154541016 48.033416748046875 50.9323844909668
C 46.0297966003418 46.482025146484375 49.55967712402344
O 45.82803726196289 46.25239181518555 48.414939880371094
C 46.0587043762207 45.337608337402344 50.54706573486328
C 46.05069351196289 43.9778938293457 50.19414520263672
H 45.99663162231445 43.64937210083008 49.15938949584961
C 46.154476165771484 42.96259307861328 51.13863754272461
C 46.30984878540039 43.29025650024414 52.483055114746094
H 46.35030746459961 42.50271224975586 53.2311897277832
C 46.48129653930664 44.62815475463867 52.88475036621094
H 46.6074104309082 44.93977355957031 53.918460845947266
C 46.357181549072266 45.588558197021484 51.91127014160156
H 46.48832321166992 46.62350082397461 52.21665954589844
C 46.194332122802734 41.54867935180664 50.61240768432617
H 46.0333137512207 41.46571350097656 49.538578033447266
C 46.28983688354492 40.38442611694336 51.3066291809082
H 46.44932174682617 40.37446212768555 52.38383865356445
C 46.32901382446289 39.07910919189453 50.74034118652344
C 45.740055084228516 38.83903884887695 49.34748458862305
H 46.52200698852539 38.568538665771484 48.634857177734375
H 45.19508743286133 39.7276611328125 49.022178649902344
H 45.1287956237793 37.934505462646484 49.37311553955078
C 46.81564712524414 38.018619537353516 51.4342155456543
H 47.15597915649414 38.22749710083008 52.447364807128906
C 46.7907829284668 36.586448669433594 51.074771881103516
H 46.40217971801758 36.30864334106445 50.096134185791016
C 47.277400970458984 35.623443603515625 51.846126556396484
H 47.9034538269043 35.94902038574219 52.675575256347656
C 47.1639289855957 34.19145965576172 51.55751419067383
C 48.278873443603516 33.37216567993164 52.11408615112305
H 48.8510856628418 32.971046447753906 51.27495574951172
H 49.0244255065918 33.982505798339844 52.62800216674805
H 47.917476654052734 32.49782180786133 52.65940475463867
C 46.105716705322266 33.703269958496094 50.916873931884766
H 45.26552200317383 34.354061126708984 50.679256439208984
C 45.95700454711914 32.25308609008789 50.572383880615234
H 46.741947174072266 31.540531158447266 50.82148742675781
C 44.78767776489258 31.90118408203125 50.01512145996094
H 44.07246780395508 32.698787689208984 49.819610595703125
C 44.30550765991211 30.50360679626465 49.84763717651367
H 45.07236862182617 29.771991729736328 50.097801208496094
C 43.18613052368164 29.956783294677734 49.375247955322266
C 41.94888687133789 30.83942985534668 49.17007827758789
H 42.07827377319336 31.769651412963867 49.727230072021484
H 41.857547760009766 31.092348098754883 48.1117057800293
H 41.06986618041992 30.299819946289062 49.528690338134766
C 43.106319427490234 28.50978660583496 49.1055793762207
H 43.8714714050293 27.84813690185547 49.508934020996094
C 42.19401168823242 27.99074935913086 48.262664794921875
H 41.46952438354492 28.69112777709961 47.84974670410156
C 41.8887825012207 26.56886100769043 48.079288482666016
H 42.3774299621582 25.86134910583496 48.74755096435547
C 41.043766021728516 26.023664474487305 47.224090576171875
C 40.2902717590332 26.88108253479004 46.21581268310547
H 40.82522201538086 27.808374404907227 46.00037384033203
H 40.20134353637695 26.264814376831055 45.318721771240234
H 39.27243423461914 27.2144775390625 46.42870330810547
C 40.75803756713867 24.611736297607422 47.09475326538086
H 41.49965286254883 23.947237014770508 47.53561782836914
C 39.74174118041992 24.058330535888672 46.37921142578125
H 38.91697311401367 24.703317642211914 46.079742431640625
C 39.46988296508789 22.54619026184082 46.24148178100586
C 39.69821548461914 21.63492774963379 47.22422409057617
C 40.064456939697266 21.869068145751953 48.62275695800781
H 39.61385726928711 21.108678817749023 49.26403045654297
H 41.130619049072266 21.818716049194336 48.85347366333008
H 39.73012161254883 22.796388626098633 49.09260940551758
C 39.458431243896484 20.14280891418457 47.06551742553711
H 38.544010162353516 19.90645408630371 47.6136360168457
H 40.33528518676758 19.689741134643555 47.532772064208984
C 39.387088775634766 19.64809799194336 45.591224670410156
H 38.9983024597168 18.627887725830078 45.569366455078125
H 40.325260162353516 19.496187210083008 45.05343246459961
C 38.454288482666016 20.701173782348633 44.82902908325195
H 38.29072189331055 20.454540252685547 43.77789306640625
H 37.420780181884766 20.7930850982666 45.169456481933594
C 39.047061920166016 22.094581604003906 44.89071273803711
C 40.16563034057617 22.082584381103516 43.81303405761719
H 40.931941986083984 21.369739532470703 44.12462615966797
H 39.73891830444336 21.667999267578125 42.897342681884766
H 40.5890007019043 23.08747673034668 43.754676818847656
C 38.02701950073242 23.031797409057617 44.25687789916992
H 38.27578353881836 24.093111038208008 44.192115783691406
H 37.8065071105957 22.71201515197754 43.23630142211914
H 37.02608871459961 22.819360733032227 44.63829803466797
