207
Triad, Carotenoid-Porphyrin-C60
C 54.97182083129883 62.95112991333008 53.89065170288086
C 53.16696548461914 60.230289459228516 59.32539749145508
C 55.196102142333984 60.08072280883789 58.36901092529297
C 56.384159088134766 61.30569076538086 56.67957305908203
C 51.18720626831055 61.5694465637207 59.330291748046875
C 51.814422607421875 60.319156646728516 59.106689453125
C 53.272300720214844 62.52238845825195 60.045135498046875
C 55.76602554321289 62.42155838012695 58.77488708496094
C 54.97663497924805 64.77922058105469 55.20789337158203
C 51.892906188964844 62.678035736083984 59.886756896972656
C 55.961238861083984 62.754459381103516 54.872100830078125
C 49.715431213378906 63.12199020385742 56.539974212646484
C 50.22482681274414 61.70741653442383 58.39365768432617
C 51.03892135620117 64.42134094238281 54.94778823852539
C 52.855003356933594 65.76648712158203 55.922698974609375
C 52.252525329589844 65.11710357666016 54.826717376708984
C 50.64863586425781 64.08580780029297 58.35415267944336
C 53.88344192504883 63.713626861572266 59.64984130859375
C 55.11185836791992 63.6540412902832 58.9852180480957
C 54.41579055786133 65.34310913085938 57.50020980834961
C 53.048561096191406 58.719295501708984 54.91303634643555
C 51.779998779296875 59.05679702758789 55.65461349487305
C 54.07707595825195 58.77022171020508 56.07706069946289
C 53.39069747924805 58.83846664428711 57.2788200378418
C 52.229164123535156 63.31430435180664 53.43815994262695
C 50.78029251098633 60.03712844848633 55.21346664428711
C 56.139217376708984 61.46268081665039 55.32467269897461
C 49.740543365478516 61.95683670043945 55.717464447021484
C 50.27099609375 60.599491119384766 57.570777893066406
C 51.02625274658203 63.31354904174805 54.107357025146484
C 55.23440170288086 59.587162017822266 55.994895935058594
C 50.94685363769531 64.8652572631836 57.230369567871094
C 52.19908142089844 65.54255676269531 57.11305236816406
C 55.34531784057617 64.43411254882812 57.885990142822266
C 52.865211486816406 64.5862045288086 59.199668884277344
C 53.25008773803711 59.71260452270508 53.72003173828125
C 52.23310470581055 60.87239456176758 53.55063247680664
C 54.50472640991211 60.562007904052734 53.832889556884766
C 52.83152770996094 62.06399154663086 53.291748046875
C 54.20103073120117 65.49636840820312 56.13357925415039
C 52.02410125732422 58.976680755615234 57.06200408935547
C 55.4609489440918 60.38400650024414 54.84054183959961
C 54.180843353271484 61.87519454956055 53.457210540771484
C 55.92072677612305 60.09199905395508 57.119728088378906
C 52.98612594604492 64.3251953125 53.92085647583008
C 51.02789306640625 60.9190788269043 54.160282135009766
C 50.078670501708984 60.74028396606445 56.216644287109375
C 53.915645599365234 59.4742317199707 58.40049362182617
C 51.24449920654297 59.727359771728516 57.997161865234375
C 53.13957595825195 65.40448760986328 58.106075286865234
C 50.422119140625 62.072208404541016 54.49463653564453
C 54.3327522277832 64.20049285888672 54.10309982299805
C 53.9398307800293 61.2870979309082 59.806583404541016
C 55.16604232788086 61.19719314575195 59.17757034301758
C 56.392635345458984 62.44717025756836 57.568824768066406
C 55.8918571472168 63.85477066040039 55.69694519042969
C 49.961029052734375 62.97072982788086 57.90011978149414
C 50.34404754638672 64.28862762451172 56.148101806640625
C 56.12856674194336 63.72489547729492 57.01438522338867
C 51.64405059814453 63.908504486083984 59.355918884277344
C 52.89202880859375 57.360591888427734 54.235595703125
N 52.91414260864258 57.47368240356445 52.95405578613281
C 53.34401321411133 58.778560638427734 52.448482513427734
H 52.629920959472656 59.14201736450195 51.70509338378906
H 54.33869552612305 58.75749588012695 51.99592208862305
C 51.37901306152344 53.78109359741211 56.296566009521484
C 50.55865478515625 54.6676139831543 55.56137466430664
H 49.496829986572266 54.482059478759766 55.421142578125
C 51.03951644897461 55.811527252197266 54.938961029052734
H 50.51454162597656 56.446529388427734 54.22991943359375
C 52.36842346191406 56.20590591430664 55.047035217285156
C 52.79541778564453 54.105777740478516 56.36003875732422
H 53.4454231262207 53.40462112426758 56.877193450927734
C 53.24257278442383 55.288944244384766 55.67597579956055
H 54.2984504699707 55.5468864440918 55.663726806640625
C 50.81404495239258 52.5321159362793 56.99250030517578
C 49.43345260620117 52.20610427856445 56.76728820800781
C 48.262977600097656 52.79710006713867 57.215065002441406
H 48.108306884765625 53.73625564575195 57.73592758178711
C 47.17387771606445 51.92173385620117 56.941585540771484
H 46.1086311340332 52.06882858276367 57.0859489440918
C 47.68755340576172 50.85188674926758 56.285247802734375
N 49.01069259643555 51.070552825927734 56.14057540893555
H 49.53608322143555 50.53541946411133 55.462547302246094
C 46.989498138427734 49.63950729370117 55.78851318359375
H 45.91498565673828 49.7471809387207 55.647979736328125
C 47.60630798339844 48.496273040771484 55.333194732666016
C 46.92816162109375 47.34318161010742 54.75684356689453
H 45.84710693359375 47.27474594116211 54.694698333740234
C 47.894195556640625 46.41135025024414 54.58591079711914
H 47.58250045776367 45.42363357543945 54.26268005371094
C 49.14543914794922 47.02908706665039 54.99140930175781
N 48.96152877807617 48.30314254760742 55.3707160949707
C 50.468955993652344 46.354427337646484 55.08664321899414
C 51.28240966796875 46.33248519897461 56.21280288696289
C 52.00526428222656 45.2872428894043 56.95554733276367
H 52.0672492980957 44.217899322509766 56.782630920410156
C 52.51823806762695 45.904170989990234 58.06718444824219
H 53.03535842895508 45.356502532958984 58.84813690185547
C 52.28776168823242 47.35520553588867 58.0351676940918
N 51.413631439208984 47.40046310424805 56.98456954956055
H 50.94118881225586 48.26579666137695 56.76072692871094
C 52.765201568603516 48.42621994018555 58.79966354370117
H 53.504146575927734 48.22347640991211 59.57346725463867
C 52.60994338989258 49.875911712646484 58.571048736572266
C 53.177738189697266 51.063968658447266 59.314613342285156
H 53.85689926147461 51.025142669677734 60.159873962402344
C 52.55503463745117 52.11782455444336 58.67356872558594
H 52.701961517333984 53.1192741394043 59.06439208984375
C 51.69814682006836 51.69472885131836 57.7072639465332
N 51.7465934753418 50.421871185302734 57.66301345825195
C 51.88691329956055 44.60557174682617 51.399532318115234
C 52.59539794921875 44.449161529541016 52.56863784790039
H 53.47958755493164 43.8168830871582 52.5716552734375
C 52.160587310791016 44.94997024536133 53.78744888305664
H 52.82191848754883 44.98665237426758 54.649349212646484
C 50.984352111816406 45.73714065551758 53.840736389160156
C 50.647857666015625 45.2280158996582 51.4693603515625
H 50.026023864746094 45.35220718383789 50.58647918701172
C 50.26059341430664 45.87990188598633 52.64237594604492
H 49.28474044799805 46.35783004760742 52.613136291503906
N 52.203033447265625 43.9820671081543 50.15279006958008
H 51.60401916503906 44.393611907958984 49.45286560058594
C 53.35078048706055 43.5151481628418 49.66246795654297
O 54.33773422241211 43.183170318603516 50.36261749267578
C 53.42184829711914 43.31277847290039 48.130279541015625
C 52.310264587402344 42.87995529174805 47.40360641479492
H 51.383724212646484 42.614925384521484 47.90644836425781
C 52.363059997558594 42.56272506713867 46.09276580810547
C 53.549617767333984 42.62650680541992 45.419944763183594
H 53.59809494018555 42.43777847290039 44.350555419921875
C 54.71590805053711 42.98186111450195 46.087745666503906
H 55.6604118347168 43.03927993774414 45.552791595458984
C 54.61957931518555 43.29013442993164 47.4140510559082
H 55.50021743774414 43.76353073120117 47.84059143066406
C 51.138938903808594 42.0297737121582 45.472415924072266
H 50.19606399536133 41.90909957885742 46.00377655029297
C 51.018272399902344 41.54047775268555 44.22660446166992
H 51.964111328125 41.51009750366211 43.6877326965332
C 49.90721130371094 40.98086166381836 43.48672866821289
C 48.5603141784668 41.46427536010742 43.83484649658203
H 48.027008056640625 41.98167037963867 43.03462600708008
H 48.678775787353516 42.21745681762695 44.61660385131836
H 48.00649642944336 40.61654281616211 44.243629455566406
C 50.06590270996094 40.015811920166016 42.5966682434082
H 51.09711456298828 39.70694351196289 42.43197250366211
C 49.10486602783203 39.469417572021484 41.66324234008789
H 48.04924392700195 39.483768463134766 41.93041229248047
C 49.47470474243164 39.011783599853516 40.42864990234375
H 50.54126739501953 38.890811920166016 40.244964599609375
C 48.566749572753906 38.43821334838867 39.44004440307617
C 49.16005325317383 37.492733001708984 38.47346115112305
H 49.33441162109375 37.84245681762695 37.45377731323242
H 50.16086959838867 37.133419036865234 38.72191619873047
H 48.57377243041992 36.57248306274414 38.430091857910156
C 47.21550750732422 38.741451263427734 39.41762161254883
H 46.85509490966797 39.32967758178711 40.26024627685547
C 46.23430633544922 38.20954513549805 38.49031066894531
H 46.66455841064453 37.83945083618164 37.560882568359375
C 44.911643981933594 38.28322982788086 38.71784210205078
H 44.6377067565918 38.68643569946289 39.691650390625
C 43.79447937011719 37.8784065246582 37.836936950683594
H 44.09318923950195 37.49985122680664 36.86051559448242
C 42.47673416137695 37.74525833129883 38.17115020751953
C 42.05305099487305 38.15140914916992 39.53826904296875
H 40.963783264160156 38.19350814819336 39.60292053222656
H 42.3560676574707 37.43446731567383 40.30419158935547
H 42.44621276855469 39.11610794067383 39.86575698852539
C 41.41592788696289 37.26912307739258 37.2861442565918
H 40.48320388793945 37.81229782104492 37.43077087402344
C 41.480655670166016 36.34340286254883 36.30215835571289
H 42.4079475402832 35.815982818603516 36.083351135253906
C 40.33601379394531 35.99686813354492 35.40647506713867
H 39.358577728271484 36.4225959777832 35.628501892089844
C 40.353939056396484 35.21979904174805 34.3033447265625
C 41.63526153564453 34.53696060180664 33.810646057128906
H 42.54779052734375 34.84927749633789 34.32271194458008
H 41.50460433959961 33.454044342041016 33.8624153137207
H 41.9487190246582 34.82436752319336 32.80485916137695
C 39.215553283691406 34.971065521240234 33.43637466430664
H 39.3468132019043 34.05838394165039 32.85697555541992
C 38.01301193237305 35.552799224853516 33.37689208984375
H 37.94694519042969 36.35500717163086 34.11040115356445
C 36.8734130859375 35.46708297729492 32.41523742675781
C 35.63383102416992 35.4503059387207 32.88655090332031
C 35.18791961669922 35.41899490356445 34.36949157714844
H 34.116249084472656 35.518070220947266 34.55434036254883
H 35.54556655883789 34.44364547729492 34.70600891113281
H 35.68130874633789 36.20468521118164 34.9454460144043
C 34.352535247802734 35.5144157409668 32.06679153442383
H 34.04108810424805 36.55989456176758 32.1161003112793
H 33.51520538330078 34.9899787902832 32.53187942504883
C 34.725730895996094 34.87324905395508 30.65837287902832
H 33.86772155761719 34.87211990356445 29.982885360717773
H 34.92927169799805 33.8035774230957 30.741127014160156
C 35.8763427734375 35.650447845458984 30.092121124267578
H 36.028987884521484 35.429195404052734 29.033720016479492
H 35.594886779785156 36.703975677490234 30.03443717956543
C 37.15310287475586 35.517948150634766 30.857898712158203
C 37.79736328125 34.211177825927734 30.35666847229004
H 37.247188568115234 33.31254196166992 30.64342498779297
H 38.00886154174805 34.1794548034668 29.28581428527832
H 38.786808013916016 34.10518264770508 30.806364059448242
C 38.17647171020508 36.50118637084961 30.395931243896484
H 39.11579513549805 36.463436126708984 30.95154571533203
H 38.30315017700195 36.53757095336914 29.311914443969727
H 37.730003356933594 37.44685745239258 30.71031951904297
