207
Triad, Carotenoid-Porphyrin-C60
C 37.47091293334961 42.06758499145508 47.045589447021484
C 39.28187561035156 46.894412994384766 50.963008880615234
C 37.25552749633789 46.08796691894531 50.34469985961914
C 36.088531494140625 44.20733642578125 49.503292083740234
C 41.498897552490234 45.88103103637695 50.974552154541016
C 40.58781051635742 46.877864837646484 50.546077728271484
C 39.81048583984375 44.83324432373047 52.29227828979492
C 37.2012939453125 44.08674240112305 51.6620979309082
C 38.0629768371582 40.8774299621582 48.84244918823242
C 41.14378356933594 44.83423614501953 51.89439010620117
C 36.6234016418457 42.40916442871094 48.056156158447266
C 42.91762161254883 43.61841583251953 48.488895416259766
C 42.31989669799805 45.495731353759766 49.91987228393555
C 41.72396469116211 41.749263763427734 47.6429557800293
C 40.40528106689453 40.61794662475586 49.24625015258789
C 40.71342468261719 40.82624053955078 47.91755294799805
C 42.38615798950195 43.17122268676758 50.65031814575195
C 39.445133209228516 43.51671600341797 52.4212760925293
C 38.11853790283203 43.07593536376953 52.04021072387695
C 39.07475662231445 41.11148452758789 50.97959518432617
C 38.596038818359375 46.708335876464844 46.38661575317383
C 39.99233627319336 46.78129196166992 47.01638412475586
C 37.75663757324219 46.765438079833984 47.66239547729492
C 38.50327682495117 47.33491516113281 48.67081832885742
C 40.03841781616211 42.130859375 46.15742874145508
C 41.031009674072266 45.90361785888672 46.726192474365234
C 36.15451431274414 43.66604232788086 48.19887161254883
C 42.536136627197266 44.37507629394531 47.40757369995117
C 41.990909576416016 46.3182487487793 48.855167388916016
C 41.310447692871094 42.54742431640625 46.5449333190918
C 36.75929260253906 45.8084602355957 47.98031997680664
C 42.220829010009766 41.97445297241211 49.92704391479492
C 41.19546127319336 41.137447357177734 50.30695724487305
C 37.97984313964844 41.92455291748047 51.32612228393555
C 40.533512115478516 42.6661262512207 52.05710220336914
C 38.336334228515625 45.39982986450195 45.54964828491211
C 39.55551528930664 44.4394645690918 45.45742416381836
C 37.337310791015625 44.37662124633789 46.17646408081055
C 39.15868377685547 43.08391189575195 45.650997161865234
C 39.13261032104492 40.58281707763672 49.71829605102539
C 39.87240982055664 47.28290939331055 48.28831100463867
C 36.49898147583008 44.66414260864258 47.24680709838867
C 37.842247009277344 43.05785369873047 46.11050796508789
C 36.583614349365234 45.47663497924805 49.339298248291016
C 39.65608215332031 41.10281753540039 47.023555755615234
C 40.81222915649414 44.768714904785156 45.98221206665039
C 42.05706787109375 45.659400939941406 47.61117935180664
C 38.248512268066406 46.9760627746582 50.00239181518555
C 40.928077697753906 47.054866790771484 49.214168548583984
C 40.33209228515625 41.48247528076172 51.38410568237305
C 41.791404724121094 43.8209342956543 46.40449905395508
C 38.355506896972656 41.0499382019043 47.48317337036133
C 38.88941192626953 45.79009246826172 51.84006118774414
C 37.627872467041016 45.38120651245117 51.484676361083984
C 36.4010009765625 43.45979309082031 50.678897857666016
C 37.0213737487793 41.706031799316406 49.18803024291992
C 42.77103042602539 44.188621520996094 49.76145553588867
C 42.52444839477539 42.2862548828125 48.58213424682617
C 36.945343017578125 42.22220993041992 50.467220306396484
C 41.56924057006836 43.503746032714844 51.72380447387695
C 38.40315246582031 47.73524475097656 45.30338668823242
N 38.0587043762207 47.29288101196289 44.14399337768555
C 37.83829879760742 45.89411163330078 44.18838119506836
H 38.41892623901367 45.44508743286133 43.37850570678711
H 36.826560974121094 45.56746292114258 43.93473434448242
C 38.68560791015625 51.97328186035156 46.104549407958984
C 37.87904739379883 51.120365142822266 46.87430953979492
H 37.37066650390625 51.559547424316406 47.72884750366211
C 37.85142517089844 49.77168273925781 46.617313385009766
H 37.20287322998047 49.22019958496094 47.29319381713867
C 38.535400390625 49.135467529296875 45.536746978759766
C 39.2457275390625 51.39598846435547 44.95082473754883
H 39.74064636230469 52.04365921020508 44.231693267822266
C 39.199337005615234 49.98048400878906 44.642704010009766
H 39.633705139160156 49.486473083496094 43.777347564697266
C 38.91403579711914 53.41033935546875 46.502323150634766
C 38.37039566040039 53.82094192504883 47.845401763916016
C 37.092140197753906 54.123233795166016 48.257564544677734
H 36.204444885253906 54.148193359375 47.63418197631836
C 37.17964553833008 54.65719223022461 49.486263275146484
H 36.36637878417969 55.14189529418945 50.0162467956543
C 38.48546600341797 54.79653549194336 49.84230422973633
N 39.167240142822266 54.29177474975586 48.7558479309082
H 40.172569274902344 54.35081481933594 48.66667556762695
C 39.107139587402344 55.352054595947266 51.04483413696289
H 38.608482360839844 55.119571685791016 51.9846305847168
C 40.48465347290039 55.3804817199707 51.27376937866211
C 41.034725189208984 54.429508209228516 52.131954193115234
H 40.49226379394531 53.73451232910156 52.76436233520508
C 42.33979034423828 54.433040618896484 51.900150299072266
H 43.12105941772461 53.74587631225586 52.20779800415039
C 42.59294891357422 55.402366638183594 50.89156723022461
N 41.452945709228516 56.03612518310547 50.507755279541016
C 43.835872650146484 55.749534606933594 50.24277877807617
C 44.02902603149414 56.05030822753906 48.867496490478516
C 44.942195892333984 56.9923095703125 48.27298355102539
H 45.65378189086914 57.54741287231445 48.875247955322266
C 44.58559036254883 57.11167907714844 46.955989837646484
H 44.877132415771484 57.79487991333008 46.16512680053711
C 43.42093276977539 56.35476303100586 46.62983322143555
N 43.27632522583008 55.682861328125 47.770084381103516
H 42.59516906738281 54.940147399902344 47.68931198120117
C 42.661354064941406 56.294254302978516 45.49656295776367
H 42.8664665222168 56.97853469848633 44.67461013793945
C 41.46343994140625 55.52141189575195 45.36262130737305
C 40.582420349121094 55.45966339111328 44.23317337036133
H 40.63801193237305 56.03565979003906 43.315372467041016
C 39.57371520996094 54.55900573730469 44.51346206665039
H 38.68861389160156 54.477333068847656 43.8912467956543
C 39.849430084228516 54.128135681152344 45.761531829833984
N 40.945533752441406 54.70846939086914 46.2705192565918
C 47.210750579833984 55.619022369384766 52.941097259521484
C 47.42839431762695 55.73674011230469 51.58052444458008
H 48.409854888916016 55.78034973144531 51.115352630615234
C 46.267948150634766 55.851219177246094 50.72793197631836
H 46.50406265258789 55.8658447265625 49.666988372802734
C 44.99235153198242 55.75039291381836 51.2194938659668
C 45.99436569213867 55.8489990234375 53.453372955322266
H 45.854427337646484 55.95869827270508 54.52573013305664
C 44.90690994262695 55.688663482666016 52.62440872192383
H 43.912113189697266 55.77463912963867 53.054012298583984
N 48.29935073852539 55.58888244628906 53.87783432006836
H 48.303096771240234 56.425594329833984 54.44173049926758
C 49.25246810913086 54.66627502441406 53.94876480102539
O 49.18484878540039 53.77065658569336 53.14179611206055
C 50.33125686645508 54.81814193725586 55.00162887573242
C 51.608272552490234 54.25590515136719 54.80141830444336
H 51.61776351928711 53.40796661376953 54.12136459350586
C 52.63850021362305 54.42586898803711 55.71731185913086
C 52.46755599975586 55.2811393737793 56.77334213256836
H 53.23808670043945 55.376869201660156 57.534061431884766
C 51.223270416259766 55.85950469970703 56.98530960083008
H 50.95743942260742 56.451934814453125 57.857051849365234
C 50.14126968383789 55.57001495361328 56.161434173583984
H 49.18173599243164 56.031578063964844 56.380130767822266
C 53.79164505004883 53.54070281982422 55.56826400756836
H 53.76432418823242 52.957462310791016 54.64902114868164
C 54.92404556274414 53.358299255371094 56.32597732543945
H 54.932987213134766 53.85023880004883 57.297489166259766
C 55.97282791137695 52.34449768066406 56.12911605834961
C 56.65067672729492 51.617286682128906 57.26516342163086
H 56.6512565612793 52.1229248046875 58.2330436706543
H 57.6887321472168 51.28937911987305 57.17927932739258
H 56.030696868896484 50.735313415527344 57.43898391723633
C 56.31821823120117 52.05716323852539 54.85593032836914
H 55.868473052978516 52.603572845458984 54.02823257446289
C 57.18369674682617 50.99587631225586 54.35557174682617
H 57.49539566040039 50.195594787597656 55.0251350402832
C 57.46109390258789 50.925086975097656 53.060245513916016
H 57.15871810913086 51.76337432861328 52.434322357177734
C 58.174556732177734 49.89284896850586 52.34187698364258
C 59.03840255737305 49.01506805419922 53.20425796508789
H 60.00612258911133 48.73065948486328 52.78581619262695
H 59.32728958129883 49.532630920410156 54.121395111083984
H 58.72663497924805 48.00571823120117 53.48080825805664
C 58.29976272583008 49.94696044921875 50.99128341674805
H 57.878475189208984 50.801109313964844 50.463199615478516
C 59.094608306884766 49.0532341003418 50.14412307739258
H 59.29729080200195 48.00166320800781 50.34170913696289
C 59.68061447143555 49.451942443847656 48.98386001586914
H 59.436771392822266 50.450828552246094 48.6251335144043
C 60.51015853881836 48.649234771728516 48.06769943237305
H 61.065120697021484 47.78999328613281 48.441402435302734
C 60.60322189331055 48.79756546020508 46.67556381225586
C 59.73783493041992 49.77070236206055 45.94890213012695
H 59.529659271240234 49.48866653442383 44.91469955444336
H 58.72672653198242 49.8663215637207 46.35013961791992
H 60.28207015991211 50.71629333496094 45.9951057434082
C 61.477474212646484 47.99401092529297 45.82062911987305
H 61.40427780151367 48.18068313598633 44.750247955322266
C 62.420475006103516 47.14964294433594 46.09816360473633
H 62.49930953979492 46.875633239746094 47.149173736572266
C 63.22706985473633 46.39780044555664 45.1716423034668
H 62.92000198364258 46.65142822265625 44.158077239990234
C 64.21573638916016 45.53726577758789 45.33243942260742
C 64.65978240966797 45.068626403808594 46.63347244262695
H 64.40762329101562 45.709415435791016 47.48097610473633
H 64.22784423828125 44.082862854003906 46.81833267211914
H 65.74964904785156 45.000518798828125 46.63601303100586
C 64.8689956665039 44.88428497314453 44.202640533447266
H 64.2490005493164 44.61161804199219 43.34988784790039
C 66.15103149414062 44.49617385864258 44.14314651489258
H 66.89071655273438 44.79228210449219 44.8855094909668
C 66.7707290649414 43.78609085083008 42.98823165893555
C 66.82659912109375 44.184967041015625 41.73002243041992
C 66.24803161621094 45.41032791137695 41.19902420043945
H 67.15725708007812 45.9901008605957 41.02688980102539
H 65.72042083740234 45.28645324707031 40.25100326538086
H 65.61262512207031 45.93764877319336 41.91362380981445
C 67.4820785522461 43.39567947387695 40.63911819458008
H 67.82963562011719 44.120521545410156 39.90001678466797
H 66.68510437011719 42.84056091308594 40.139984130859375
C 68.58818054199219 42.433876037597656 41.14370346069336
H 69.45944213867188 42.95286178588867 41.548702239990234
H 68.97198486328125 41.918190002441406 40.26096725463867
C 67.97958374023438 41.596588134765625 42.23038864135742
H 67.12712097167969 41.05183029174805 41.819278717041016
H 68.60794830322266 40.8008918762207 42.63595962524414
C 67.43450927734375 42.48292541503906 43.4101448059082
C 66.5278091430664 41.569820404052734 44.281246185302734
H 66.25483703613281 42.135196685791016 45.17471694946289
H 65.63150787353516 41.24712371826172 43.74740982055664
H 66.98314666748047 40.66259765625 44.683841705322266
C 68.58478546142578 42.591304779052734 44.3718147277832
H 68.9404525756836 41.58863067626953 44.61799240112305
H 69.44893646240234 43.08804702758789 43.92576217651367
H 68.294677734375 43.19926834106445 45.23128128051758
