207
Triad, Carotenoid-Porphyrin-C60
C 52.51458740234375 41.555198669433594 67.95700073242188
C 57.301578521728516 44.45155715942383 64.62213134765625
C 55.548492431640625 45.36703109741211 65.70427703857422
C 54.04128646850586 44.6980094909668 67.4094467163086
C 58.433937072753906 42.37112808227539 64.53729248046875
C 57.636199951171875 43.33332824707031 63.93802261352539
C 58.54307556152344 43.702125549316406 66.57876586914062
C 56.359535217285156 44.78926086425781 67.9321060180664
C 54.32646179199219 41.32975769042969 69.32636260986328
C 58.88750457763672 42.552677154541016 65.86038208007812
C 52.87699890136719 42.8447380065918 68.39906311035156
C 57.01942443847656 39.06509780883789 64.95618438720703
C 58.00532913208008 41.092411041259766 64.10478973388672
C 55.41705322265625 38.52851486206055 66.73652648925781
C 55.9919548034668 39.639522552490234 68.83867645263672
C 55.040138244628906 38.984344482421875 67.9905776977539
C 58.47245788574219 40.160888671875 66.29902648925781
C 58.27124786376953 43.27947235107422 67.88936614990234
C 57.203861236572266 43.8985595703125 68.62942504882812
C 56.658966064453125 41.70833206176758 69.5565185546875
C 53.082298278808594 42.82452392578125 63.28997802734375
C 54.373050689697266 42.13896179199219 62.947975158691406
C 53.648128509521484 44.107242584228516 63.99440383911133
C 54.985050201416016 44.2453727722168 63.700904846191406
C 53.36885452270508 39.31361770629883 66.54508972167969
C 54.63887405395508 40.76839828491211 63.102718353271484
C 52.9751091003418 43.8643913269043 67.43324279785156
C 55.96479797363281 39.27639389038086 64.03497314453125
C 56.98921203613281 41.264442443847656 63.185794830322266
C 54.422386169433594 38.740665435791016 65.84498596191406
C 53.331912994384766 44.48612594604492 65.27042388916016
C 57.61635208129883 39.419471740722656 67.11842346191406
C 57.21611785888672 39.91799545288086 68.35835266113281
C 56.3817138671875 43.09555435180664 69.3851089477539
C 58.521453857421875 41.901363372802734 67.99649047851562
C 52.17892074584961 41.94850540161133 64.2608642578125
C 52.677982330322266 40.49028015136719 64.54008483886719
C 52.086769104003906 42.410743713378906 65.67720031738281
C 52.56409454345703 40.225135803222656 65.9133071899414
C 55.61960983276367 40.78276062011719 69.55828857421875
C 55.414737701416016 43.05982208251953 63.072021484375
C 52.56690216064453 43.66801834106445 66.1158218383789
C 52.20378494262695 41.38262176513672 66.59973907470703
C 54.2444953918457 45.12356185913086 66.1107406616211
C 53.736915588378906 39.47496032714844 67.89513397216797
C 53.80477523803711 39.96222686767578 63.852787017822266
C 55.958641052246094 40.36050033569336 63.232032775878906
C 55.95112609863281 44.90293502807617 64.48455047607422
C 56.70507049560547 42.659149169921875 63.1783447265625
C 57.66349411010742 41.13837814331055 68.83876037597656
C 54.669010162353516 39.110504150390625 64.5157470703125
C 53.339141845703125 40.61137771606445 68.60205078125
C 57.708953857421875 44.66459274291992 65.94541931152344
C 56.6058349609375 45.18655014038086 66.61078643798828
C 55.08710861206055 44.58446502685547 68.34674835205078
C 53.99736785888672 42.67852783203125 69.22293853759766
C 58.07168197631836 39.968650817871094 65.00054931640625
C 56.72332000732422 38.75619888305664 66.27891540527344
C 55.11304473876953 43.54597091674805 69.22196960449219
C 58.89133834838867 41.456146240234375 66.7146224975586
C 52.141845703125 43.184051513671875 62.17576599121094
N 50.93638229370117 42.772850036621094 62.36188507080078
C 50.773780822753906 41.94763946533203 63.54338836669922
H 50.49259567260742 40.944942474365234 63.21145248413086
H 49.9876823425293 42.327213287353516 64.20113372802734
C 52.95930480957031 46.07558822631836 59.14479064941406
C 53.624305725097656 44.86239242553711 59.17066192626953
H 54.4618034362793 44.71836853027344 58.492855072021484
C 53.42510986328125 43.89912033081055 60.127994537353516
H 54.07625198364258 43.028743743896484 60.13380813598633
C 52.38675308227539 44.149375915527344 61.072288513183594
C 51.929500579833984 46.311092376708984 59.95448684692383
H 51.451744079589844 47.285499572753906 60.01651382446289
C 51.66328811645508 45.35039138793945 60.98219680786133
H 50.89380645751953 45.52052688598633 61.73087692260742
C 53.383392333984375 47.11019515991211 58.17927169799805
C 54.41230773925781 46.807411193847656 57.16913986206055
C 55.70062255859375 46.36882019042969 57.2747688293457
H 56.193359375 46.180625915527344 58.22293472290039
C 56.24476623535156 46.39454650878906 55.98127746582031
H 57.28425598144531 46.15731430053711 55.780269622802734
C 55.28360366821289 46.79923629760742 55.07087707519531
N 54.194400787353516 47.062530517578125 55.794525146484375
H 53.3506965637207 47.451171875 55.39547348022461
C 55.32594299316406 46.91144561767578 53.58135223388672
H 56.33091354370117 46.719451904296875 53.20840072631836
C 54.37184143066406 47.3352165222168 52.708831787109375
C 53.9216423034668 46.61766052246094 51.57122039794922
H 54.254024505615234 45.678314208984375 51.1418342590332
C 52.892337799072266 47.364749908447266 51.17031478881836
H 52.111549377441406 47.25961685180664 50.424293518066406
C 52.79638671875 48.593711853027344 51.9415397644043
N 53.738582611083984 48.529815673828125 52.882530212402344
C 51.86790466308594 49.6502799987793 51.76947021484375
C 51.48688888549805 50.40449905395508 52.87871551513672
C 51.04310607910156 51.787689208984375 52.94451904296875
H 50.873409271240234 52.44662094116211 52.099395751953125
C 50.78740310668945 52.07833480834961 54.28007125854492
H 50.43244934082031 53.039188385009766 54.63783264160156
C 51.316566467285156 51.0899658203125 55.09867477416992
N 51.57614517211914 50.10331344604492 54.20089340209961
H 51.73096466064453 49.16376495361328 54.54060745239258
C 51.486812591552734 51.205718994140625 56.440940856933594
H 51.1428337097168 52.160736083984375 56.835330963134766
C 51.99274444580078 50.216495513916016 57.3507080078125
C 52.18505859375 50.41102981567383 58.79241943359375
H 51.992584228515625 51.257083892822266 59.4438591003418
C 52.648094177246094 49.17864990234375 59.146018981933594
H 52.8429069519043 48.98310470581055 60.19532775878906
C 52.74516677856445 48.32952880859375 58.12644958496094
N 52.394813537597656 48.991119384765625 57.04771423339844
C 51.2214241027832 51.18262481689453 47.83037185668945
C 50.312381744384766 51.484352111816406 48.86174774169922
H 49.44987487792969 52.03971481323242 48.502262115478516
C 50.45658874511719 50.916229248046875 50.08712387084961
H 49.765541076660156 51.11798858642578 50.90156555175781
C 51.508182525634766 50.091514587402344 50.357566833496094
C 52.323020935058594 50.32183837890625 48.019287109375
H 53.019832611083984 50.035743713378906 47.235595703125
C 52.410884857177734 49.73928451538086 49.308956146240234
H 53.272769927978516 49.115848541259766 49.53268051147461
N 51.028507232666016 51.704193115234375 46.53291702270508
H 51.886173248291016 51.855979919433594 46.02355194091797
C 49.893985748291016 51.78181838989258 45.78725814819336
O 48.85070037841797 51.35295104980469 46.21202087402344
C 49.99002456665039 52.22380065917969 44.35783004760742
C 48.9379768371582 51.96250915527344 43.47882080078125
H 48.114234924316406 51.35957717895508 43.852317810058594
C 48.88509750366211 52.499725341796875 42.194190979003906
C 49.97084045410156 53.23231887817383 41.70597457885742
H 49.972721099853516 53.55620574951172 40.66835021972656
C 50.96653366088867 53.6253547668457 42.563087463378906
H 51.68882369995117 54.396568298339844 42.30795669555664
C 50.900325775146484 53.231048583984375 43.865665435791016
H 51.63365173339844 53.62310791015625 44.56572723388672
C 47.70651626586914 52.261024475097656 41.4397087097168
H 46.96685791015625 51.72482681274414 42.03242874145508
C 47.3075065612793 52.59666442871094 40.169593811035156
H 47.9754753112793 53.199378967285156 39.55601119995117
C 45.99983215332031 52.36565017700195 39.5146369934082
C 44.798404693603516 52.111106872558594 40.39421844482422
H 43.95850372314453 51.72989273071289 39.80966567993164
H 44.535186767578125 52.93164825439453 41.064964294433594
H 44.99977493286133 51.238197326660156 41.0186767578125
C 45.95226287841797 52.424076080322266 38.18296432495117
H 46.87253189086914 52.782718658447266 37.72426986694336
C 44.73539733886719 52.28129196166992 37.28303909301758
H 43.8819580078125 51.783138275146484 37.74064636230469
C 44.62376022338867 52.66471481323242 35.97004699707031
H 45.38552474975586 53.34960174560547 35.600486755371094
C 43.47869110107422 52.56065368652344 35.14383316040039
C 42.20724868774414 52.216182708740234 35.93180465698242
H 42.19450378417969 52.854549407958984 36.817691802978516
H 41.32841491699219 52.50482177734375 35.35145568847656
H 42.10538864135742 51.1461296081543 36.124359130859375
C 43.43510437011719 52.93552780151367 33.84577178955078
H 44.39344787597656 53.20785140991211 33.406070709228516
C 42.371524810791016 52.795654296875 32.89163589477539
H 41.52358627319336 52.244510650634766 33.29557418823242
C 42.3773078918457 53.34634780883789 31.68168067932129
H 43.142173767089844 54.09212875366211 31.470199584960938
C 41.29310989379883 53.25162124633789 30.669130325317383
H 40.323585510253906 52.90843200683594 31.02713394165039
C 41.302391052246094 53.585533142089844 29.379568099975586
C 42.47404861450195 54.205299377441406 28.68744659423828
H 42.371524810791016 54.278255462646484 27.602725982666016
H 42.777687072753906 55.1345329284668 29.174060821533203
H 43.294105529785156 53.50330352783203 28.85226821899414
C 40.1600456237793 53.49869155883789 28.466833114624023
H 39.53791427612305 52.61025619506836 28.564598083496094
C 39.843238830566406 54.433685302734375 27.5128231048584
H 40.36507034301758 55.38845443725586 27.46768569946289
C 38.573909759521484 54.295597076416016 26.67561149597168
H 38.069278717041016 53.33496856689453 26.767608642578125
C 37.93238830566406 55.214439392089844 25.937280654907227
C 38.52653503417969 56.623252868652344 25.866220474243164
H 38.3781623840332 57.119327545166016 26.827653884887695
H 39.5753059387207 56.62567138671875 25.56201171875
H 37.92289352416992 57.23891830444336 25.196121215820312
C 36.722190856933594 55.10575866699219 25.16268539428711
H 36.025753021240234 54.59014892578125 25.822267532348633
C 36.33307647705078 55.60348129272461 23.96657371520996
H 37.0869255065918 56.18893051147461 23.442285537719727
C 35.029972076416016 55.28101348876953 23.24488639831543
C 34.31466293334961 54.184913635253906 23.232177734375
C 34.71324157714844 52.960411071777344 23.97886848449707
H 34.49362564086914 53.19971466064453 25.02145004272461
H 34.15943145751953 52.06261444091797 23.696516036987305
H 35.77138900756836 52.730438232421875 23.83778953552246
C 32.94490432739258 53.91257095336914 22.558761596679688
H 32.31898880004883 53.49553298950195 23.350452423095703
H 33.02122116088867 53.20061111450195 21.73428726196289
C 32.23462677001953 55.26846694946289 22.192264556884766
H 31.78586196899414 55.83706283569336 23.00943946838379
H 31.383649826049805 55.05292510986328 21.54277229309082
C 33.291812896728516 56.078121185302734 21.41326904296875
H 33.76643371582031 55.363731384277344 20.73736572265625
H 32.92998123168945 57.023006439208984 21.002492904663086
C 34.535369873046875 56.436649322509766 22.27596092224121
C 35.47235870361328 56.89699935913086 21.192602157592773
H 35.02223587036133 57.67287063598633 20.569805145263672
H 36.36455535888672 57.383365631103516 21.592472076416016
H 35.829612731933594 56.05461502075195 20.596599578857422
C 34.36603927612305 57.66448211669922 23.051000595092773
H 35.18098068237305 57.97075653076172 23.710186004638672
H 34.12405776977539 58.49994659423828 22.390769958496094
H 33.45782470703125 57.455604553222656 23.620193481445312
