207
Triad, Carotenoid-Porphyrin-C60
C 51.39290237426758 49.84084701538086 35.0401725769043
C 52.75783920288086 48.206912994384766 41.11814498901367
C 52.964962005615234 50.12400436401367 40.01872634887695
C 52.140987396240234 51.34760665893555 38.13894271850586
C 51.53011703491211 46.1559944152832 40.84046936035156
C 52.74736404418945 46.78245162963867 40.90808868408203
C 50.39165115356445 48.15982437133789 41.13930892944336
C 50.60187911987305 50.54115676879883 39.84079360961914
C 49.29555130004883 49.734981536865234 35.87644958496094
C 50.3293342590332 46.77949905395508 40.981136322021484
C 51.257564544677734 50.84151840209961 35.99199295043945
C 50.7994499206543 44.58999252319336 37.71210861206055
C 51.62613296508789 45.071937561035156 39.90947341918945
C 49.984188079833984 45.809261322021484 35.81968688964844
C 48.434627532958984 47.5982780456543 36.36521911621094
C 49.34280776977539 46.999996185302734 35.462642669677734
C 49.341922760009766 45.46095657348633 39.16238784790039
C 49.2910270690918 48.66807174682617 40.46522521972656
C 49.42215347290039 49.878353118896484 39.81853103637695
C 48.25247573852539 49.0846061706543 37.95647048950195
C 55.303951263427734 48.07558059692383 37.20445251464844
C 54.791133880615234 46.84006118774414 37.95772171020508
C 54.87363052368164 49.137325286865234 38.24968338012695
C 54.53889083862305 48.470401763916016 39.41524124145508
C 51.442867279052734 47.079463958740234 34.666770935058594
C 54.0400276184082 45.856197357177734 37.27935028076172
C 52.37936782836914 51.133975982666016 36.804195404052734
C 52.08773422241211 44.66089630126953 37.19880294799805
C 52.95363235473633 45.16729736328125 39.38969421386719
C 51.22420120239258 45.84316635131836 35.22936248779297
C 54.07463455200195 50.25064468383789 37.881248474121094
C 48.83908462524414 45.7435417175293 37.93965530395508
C 48.20750045776367 46.888423919677734 37.57367706298828
C 48.914546966552734 50.11784744262695 38.588600158691406
C 48.66365432739258 47.64915084838867 39.85874557495117
C 54.73392105102539 48.2800407409668 35.70180892944336
C 53.76808547973633 47.143619537353516 35.28843688964844
C 53.780094146728516 49.4921989440918 35.586666107177734
C 52.640926361083984 47.7793083190918 34.73723602294922
C 48.44479751586914 48.91337203979492 36.614986419677734
C 54.53537368774414 47.07014083862305 39.278255462646484
C 53.57852554321289 50.40620803833008 36.61943817138672
C 52.625850677490234 49.16572952270508 34.89555358886719
C 53.17079544067383 50.77573013305664 38.797950744628906
C 50.23575973510742 47.75436019897461 34.72541427612305
C 53.54399490356445 45.93875503540039 36.03102493286133
C 53.17099380493164 44.9883918762207 38.00379180908203
C 53.66080856323242 48.99082565307617 40.364192962646484
C 53.63212966918945 46.225887298583984 39.981590270996094
C 48.18203353881836 47.86995315551758 38.58616638183594
C 52.31717300415039 45.268062591552734 36.001319885253906
C 50.204105377197266 49.12834548950195 34.979679107666016
C 51.571163177490234 48.8213005065918 41.1873664855957
C 51.693294525146484 50.04909896850586 40.574092864990234
C 50.8286247253418 51.211917877197266 38.69731903076172
C 49.98933029174805 50.73807144165039 36.54747772216797
C 50.54997634887695 44.77922439575195 39.08720016479492
C 49.74515151977539 45.13020324707031 37.0302734375
C 49.736026763916016 50.999324798583984 37.90357208251953
C 49.24879837036133 46.43977737426758 40.17194747924805
C 56.8293571472168 48.008663177490234 37.021568298339844
N 57.179752349853516 48.23281478881836 35.78294372558594
C 56.01436996459961 48.247920989990234 34.82866287231445
H 56.0799674987793 47.4002571105957 34.14177322387695
H 56.20480728149414 49.1418342590332 34.229248046875
C 59.30733108520508 48.38264846801758 40.594608306884766
C 58.71272659301758 49.53720474243164 39.96276092529297
H 58.507083892822266 50.479129791259766 40.46482467651367
C 58.04572677612305 49.4058723449707 38.71965789794922
H 57.646541595458984 50.266788482666016 38.18950653076172
C 57.829708099365234 48.12753677368164 38.13829803466797
C 59.09897994995117 47.15652847290039 39.887855529785156
H 59.39278793334961 46.22761917114258 40.369895935058594
C 58.27834701538086 46.995304107666016 38.80699920654297
H 58.055667877197266 46.03770065307617 38.34334182739258
C 60.05094528198242 48.45711135864258 41.858734130859375
C 59.85612869262695 49.686405181884766 42.5352897644043
C 60.44515609741211 50.92363357543945 42.365352630615234
H 60.94997787475586 51.15305709838867 41.43275451660156
C 59.8889045715332 51.7942008972168 43.30356979370117
H 59.99131393432617 52.87367630004883 43.34194564819336
C 59.162410736083984 51.03499221801758 44.191497802734375
N 59.07085037231445 49.81937789916992 43.66105651855469
H 58.441768646240234 49.117122650146484 44.026058197021484
C 58.40044021606445 51.367733001708984 45.36611557006836
H 58.39054489135742 52.43294906616211 45.59225845336914
C 57.88767623901367 50.49337387084961 46.25810623168945
C 56.48354721069336 50.23161697387695 46.39066696166992
H 55.7043342590332 50.71523666381836 45.810874938964844
C 56.41640090942383 49.266056060791016 47.33609390258789
H 55.56806564331055 48.6704216003418 47.656681060791016
C 57.78689956665039 48.88137435913086 47.6609992980957
N 58.64778518676758 49.64455795288086 47.02566146850586
C 58.24655532836914 47.68416976928711 48.42081069946289
C 59.23233413696289 46.81325149536133 48.00983810424805
C 60.0720329284668 45.97086715698242 48.73537063598633
H 60.0496940612793 45.92976760864258 49.81936264038086
C 60.98337936401367 45.33964157104492 47.8260383605957
H 61.781925201416016 44.62847900390625 48.009883880615234
C 60.7414436340332 45.81429672241211 46.51496124267578
N 59.804195404052734 46.77385330200195 46.758182525634766
H 59.61374282836914 47.46011734008789 46.04061508178711
C 61.31747817993164 45.42880630493164 45.36984634399414
H 62.04130172729492 44.63640594482422 45.55447769165039
C 61.1335334777832 45.8858528137207 44.00973892211914
C 61.794803619384766 45.51277542114258 42.77729415893555
H 62.4646110534668 44.666587829589844 42.66523361206055
C 61.33633804321289 46.371402740478516 41.81962585449219
H 61.69768142700195 46.44379806518555 40.799129486083984
C 60.56205368041992 47.313045501708984 42.44516372680664
N 60.43275833129883 47.01639938354492 43.75821304321289
C 56.01485824584961 47.050724029541016 52.106746673583984
C 56.7046012878418 46.04330825805664 51.5485725402832
H 56.608219146728516 45.02366638183594 51.9127311706543
C 57.4545783996582 46.20724868774414 50.34621047973633
H 57.899906158447266 45.36898422241211 49.816524505615234
C 57.52968978881836 47.47726821899414 49.7430305480957
C 56.16897964477539 48.29031753540039 51.5645866394043
H 55.478145599365234 49.039852142333984 51.94209671020508
C 56.850154876708984 48.43161392211914 50.340641021728516
H 56.94076919555664 49.4360237121582 49.93503189086914
N 55.12643814086914 46.91190719604492 53.190189361572266
H 55.591495513916016 46.467716217041016 53.96768569946289
C 53.829105377197266 47.2687873840332 53.29018783569336
O 53.274715423583984 47.8255729675293 52.36247634887695
C 53.14994430541992 46.9610710144043 54.64333724975586
C 51.84585952758789 47.40652084350586 54.85366439819336
H 51.333919525146484 47.876338958740234 54.01774978637695
C 51.178470611572266 47.241580963134766 56.051822662353516
C 51.91958236694336 46.58878707885742 57.08213424682617
H 51.45669174194336 46.35701370239258 58.0379524230957
C 53.233219146728516 46.09750747680664 56.8976936340332
H 53.66615676879883 45.70103073120117 57.81253433227539
C 53.8631477355957 46.357242584228516 55.69807815551758
H 54.896305084228516 46.04251480102539 55.57522964477539
C 49.75077438354492 47.580692291259766 56.16621780395508
H 49.30668258666992 47.83554458618164 55.20509719848633
C 48.92898178100586 47.44331741333008 57.189937591552734
H 49.4508171081543 47.07351303100586 58.07133102416992
C 47.51137924194336 47.76034927368164 57.425907135009766
C 46.669002532958984 48.00419235229492 56.24301528930664
H 47.1690559387207 47.78641891479492 55.29697799682617
H 46.36130142211914 49.05022048950195 56.1829719543457
H 45.830867767333984 47.30533981323242 56.28288650512695
C 46.888919830322266 47.874935150146484 58.64278030395508
H 47.50045394897461 47.70999526977539 59.52864456176758
C 45.49626541137695 48.171024322509766 58.96724319458008
H 44.853939056396484 48.547367095947266 58.17244338989258
C 44.9583625793457 47.968997955322266 60.18436813354492
H 45.60933303833008 47.53609848022461 60.942501068115234
C 43.598148345947266 48.3465461730957 60.66111373901367
C 43.373905181884766 48.27804946899414 62.14303207397461
H 42.52546310424805 47.63333511352539 62.381710052490234
H 44.27022171020508 48.0133171081543 62.707820892333984
H 43.19364547729492 49.268856048583984 62.56525802612305
C 42.54769515991211 48.57760238647461 59.838199615478516
H 42.87800979614258 48.642147064208984 58.80251693725586
C 41.117061614990234 48.7624397277832 60.14967727661133
H 40.73911666870117 48.37313461303711 61.093875885009766
C 40.28742599487305 49.418514251708984 59.3127326965332
H 40.7714729309082 49.824771881103516 58.425838470458984
C 38.86257553100586 49.765201568603516 59.509464263916016
H 38.42251968383789 49.525630950927734 60.47635269165039
C 37.93867111206055 50.49800491333008 58.80378341674805
C 38.35311508178711 51.11050033569336 57.4884147644043
H 39.40494918823242 51.40388870239258 57.49416732788086
H 38.22743606567383 50.35175704956055 56.71318435668945
H 37.739559173583984 51.97495651245117 57.22628402709961
C 36.50178909301758 50.74686813354492 59.21640396118164
H 36.388492584228516 50.76662063598633 60.299312591552734
C 35.39114761352539 50.946475982666016 58.46409225463867
H 35.46708297729492 50.89116287231445 57.379154205322266
C 34.1312255859375 51.17301559448242 59.07156753540039
H 34.23041534423828 51.40542984008789 60.13084030151367
C 32.869930267333984 51.06698989868164 58.60109329223633
C 32.51878356933594 50.68886947631836 57.16249465942383
H 31.812294006347656 49.85722732543945 57.20376205444336
H 32.16875457763672 51.5271110534668 56.556453704833984
H 33.42431640625 50.27540969848633 56.71357345581055
C 31.699684143066406 51.185916900634766 59.44770431518555
H 30.844215393066406 51.65388870239258 58.962833404541016
C 31.64582061767578 50.94771957397461 60.75405502319336
H 32.52276611328125 50.59372329711914 61.29402542114258
C 30.59665298461914 51.37150192260742 61.737308502197266
C 29.236526489257812 51.46625900268555 61.44645309448242
C 28.626083374023438 51.0175666809082 60.13454818725586
H 29.101768493652344 50.09791946411133 59.78750228881836
H 27.612632751464844 50.655887603759766 60.320491790771484
H 28.54092788696289 51.77650833129883 59.35402297973633
C 28.191593170166016 51.95317459106445 62.346675872802734
H 27.702106475830078 51.09321212768555 62.80856704711914
H 27.435596466064453 52.52443313598633 61.80391311645508
C 28.850528717041016 52.8810920715332 63.34296798706055
H 28.104171752929688 53.35129928588867 63.98664474487305
H 29.364089965820312 53.72453689575195 62.87678909301758
C 29.926803588867188 52.06748580932617 64.07979583740234
H 30.291778564453125 52.62852096557617 64.94264221191406
H 29.531925201416016 51.10488510131836 64.41136169433594
C 31.148094177246094 51.67038345336914 63.15573501586914
C 32.18385696411133 52.77346420288086 63.15523910522461
H 31.806236267089844 53.52119064331055 62.45467758178711
H 32.2359619140625 53.21171188354492 64.1540756225586
H 33.187843322753906 52.553218841552734 62.7864875793457
C 31.854976654052734 50.57163619995117 63.8731803894043
H 32.878807067871094 50.3776969909668 63.5466423034668
H 31.949268341064453 50.8244743347168 64.93130493164062
H 31.322608947753906 49.62529373168945 63.7570686340332
