207
Triad, Carotenoid-Porphyrin-C60
C 32.19855880737305 49.78865051269531 45.489402770996094
C 34.41109848022461 45.33804702758789 41.476890563964844
C 34.128299713134766 45.18183135986328 43.701148986816406
C 32.82471466064453 46.30982971191406 45.41834259033203
C 33.7073860168457 46.70624542236328 39.62103271484375
C 34.74897384643555 46.21274185180664 40.417205810546875
C 32.10934829711914 45.26464080810547 40.78889465332031
C 31.758047103881836 45.20729446411133 43.527801513671875
C 30.356809616088867 49.111244201660156 44.52215576171875
C 32.36958312988281 46.224449157714844 39.81903076171875
C 31.971940994262695 48.4666748046875 45.91094970703125
C 33.04669189453125 50.18012237548828 39.750221252441406
C 33.9732666015625 48.050994873046875 39.28053283691406
C 31.75190544128418 51.28234100341797 41.465087890625
C 29.963937759399414 49.81410217285156 42.24488067626953
C 30.848508834838867 50.90412139892578 42.45719909667969
C 31.654287338256836 48.49523162841797 39.33039855957031
C 30.886747360229492 45.688026428222656 41.35986328125
C 30.6933650970459 45.66065216064453 42.741004943847656
C 29.552091598510742 47.76290512084961 42.762840270996094
C 36.386253356933594 48.71726989746094 43.906463623046875
C 36.37065887451172 48.80243682861328 42.386924743652344
C 35.93550109863281 47.28859329223633 44.11650085449219
C 35.887977600097656 46.59321594238281 42.9151611328125
C 32.735225677490234 51.58655548095703 43.49286651611328
C 35.921932220458984 49.91504669189453 41.69060516357422
C 33.000404357910156 47.584815979003906 45.902305603027344
C 34.205039978027344 50.608131408691406 40.39753723144531
C 35.12751007080078 48.43864440917969 39.94148254394531
C 32.955204010009766 51.67267608642578 42.11793518066406
C 34.96564865112305 47.00589370727539 45.08814239501953
C 30.93607521057129 49.484100341796875 40.00476837158203
C 30.031946182250977 49.08812713623047 41.062232971191406
C 29.96632957458496 46.620479583740234 43.488037109375
C 30.37043571472168 46.79517364501953 40.6505126953125
C 35.70660400390625 49.82987976074219 44.66631317138672
C 35.03162384033203 50.847373962402344 43.75244903564453
C 34.61098861694336 49.33219909667969 45.481956481933594
C 33.78502655029297 51.12239074707031 44.302154541015625
C 29.72807502746582 48.96721649169922 43.30131530761719
C 36.18292999267578 47.503746032714844 41.85115051269531
C 34.29944610595703 48.00237274169922 45.749237060546875
C 33.49937438964844 50.212181091308594 45.321434020996094
C 34.025901794433594 45.92849349975586 44.86688232421875
C 31.44688606262207 51.14488220214844 43.68872833251953
C 35.23778533935547 50.9417724609375 42.337860107421875
C 35.24827194213867 49.68629455566406 40.51441955566406
C 35.002952575683594 45.54664993286133 42.690704345703125
C 35.577545166015625 47.32917785644531 40.61530303955078
C 29.73232078552246 47.78599548339844 41.356101989746094
C 34.182132720947266 51.365997314453125 41.530067443847656
C 31.128034591674805 50.24592590332031 44.71565246582031
C 33.13798904418945 44.79701232910156 41.66188049316406
C 32.95391845703125 44.75376892089844 43.066307067871094
C 31.664827346801758 45.89070510864258 44.741943359375
C 30.757482528686523 48.069129943847656 45.326744079589844
C 32.91268539428711 48.944190979003906 39.15504455566406
C 31.787233352661133 50.52449035644531 40.24927520751953
C 30.6031551361084 46.76998519897461 44.696693420410156
C 31.334993362426758 47.1394157409668 39.6453857421875
C 37.853492736816406 48.82286071777344 44.30548095703125
N 38.0451545715332 49.70361328125 45.211036682128906
C 36.80410385131836 50.43211364746094 45.54414367675781
H 36.916622161865234 51.518943786621094 45.51605224609375
H 36.65546417236328 50.17772674560547 46.5966796875
C 41.00751876831055 46.40900421142578 42.72367858886719
C 40.636409759521484 47.60242462158203 42.07813262939453
H 41.10419464111328 47.93737030029297 41.15586853027344
C 39.57712936401367 48.372337341308594 42.61176300048828
H 39.27750015258789 49.309303283691406 42.14927673339844
C 38.931278228759766 47.98871612548828 43.783050537109375
C 40.38251495361328 46.11295700073242 43.965057373046875
H 40.845130920410156 45.31481170654297 44.53997039794922
C 39.35472869873047 46.873172760009766 44.51100158691406
H 38.93111801147461 46.60945510864258 45.47669982910156
C 42.1129264831543 45.556758880615234 42.118072509765625
C 42.80815124511719 46.112823486328125 40.935279846191406
C 42.331993103027344 46.304317474365234 39.68346405029297
H 41.32890319824219 46.12226486206055 39.31211853027344
C 43.435020446777344 46.702186584472656 38.817161560058594
H 43.48384475708008 46.96269607543945 37.765037536621094
C 44.563323974609375 46.59917449951172 39.61357879638672
N 44.1644287109375 46.39014434814453 40.88679504394531
H 44.78178787231445 46.27499771118164 41.67908477783203
C 45.954280853271484 46.84452438354492 39.31761932373047
H 46.194862365722656 46.840328216552734 38.25553894042969
C 47.05339431762695 46.697933197021484 40.05775451660156
C 48.39021301269531 46.91841125488281 39.642494201660156
H 48.68141555786133 47.27113342285156 38.65862274169922
C 49.13600158691406 46.58036804199219 40.761940002441406
H 50.1970329284668 46.39371109008789 40.89080810546875
C 48.32148361206055 46.252166748046875 41.869667053222656
N 47.03580856323242 46.22700881958008 41.332603454589844
C 48.551841735839844 45.76724624633789 43.23889923095703
C 48.01477813720703 44.59163284301758 43.74144744873047
C 48.55189895629883 43.50236129760742 44.52495574951172
H 49.61300277709961 43.576393127441406 44.73896789550781
C 47.53504943847656 42.561885833740234 44.70384216308594
H 47.593841552734375 41.571311950683594 45.14263153076172
C 46.37005615234375 43.01884078979492 44.106658935546875
N 46.72663497924805 44.23571014404297 43.66856384277344
H 46.08168411254883 44.86519241333008 43.21039581298828
C 45.129844665527344 42.420467376708984 44.088890075683594
H 45.11404037475586 41.416709899902344 44.510963439941406
C 43.88410186767578 42.9501953125 43.5953369140625
C 42.56798553466797 42.477291107177734 43.6937255859375
H 42.21323776245117 41.5709342956543 44.17320251464844
C 41.718849182128906 43.45922088623047 43.17320251464844
H 40.64374542236328 43.32072830200195 43.126365661621094
C 42.51815414428711 44.45211410522461 42.750404357910156
N 43.78507995605469 44.148128509521484 43.00634002685547
C 49.87533950805664 48.83489227294922 46.03748321533203
C 49.50083541870117 47.551002502441406 46.469154357910156
H 49.55724334716797 47.46567153930664 47.55133056640625
C 49.26354217529297 46.49699401855469 45.58735656738281
H 49.02119064331055 45.49604034423828 45.93510437011719
C 49.05765151977539 46.803836822509766 44.20184326171875
C 49.714054107666016 49.02936553955078 44.65533447265625
H 49.969512939453125 50.011810302734375 44.26659393310547
C 49.32717514038086 48.07185363769531 43.739646911621094
H 49.163429260253906 48.36698913574219 42.70636749267578
N 50.35312271118164 49.927642822265625 46.84992218017578
H 50.09052276611328 50.82549285888672 46.4718017578125
C 50.79092788696289 49.90650177001953 48.10808563232422
O 50.91173553466797 48.880943298339844 48.72459411621094
C 51.218326568603516 51.250640869140625 48.623046875
C 52.36638641357422 51.28852081298828 49.486900329589844
H 52.79422378540039 50.388404846191406 49.92085266113281
C 52.81603240966797 52.50645446777344 49.966529846191406
C 52.22137451171875 53.72552490234375 49.51579284667969
H 52.40254211425781 54.669769287109375 50.02289581298828
C 51.11243438720703 53.68812561035156 48.656883239746094
H 50.901885986328125 54.599266052246094 48.102752685546875
C 50.72007369995117 52.436370849609375 48.19273376464844
H 49.92472839355469 52.41075134277344 47.452239990234375
C 53.97341537475586 52.43141174316406 50.936851501464844
H 54.35104751586914 51.441192626953125 51.187416076660156
C 54.63203048706055 53.52220916748047 51.42366027832031
H 54.31924057006836 54.483367919921875 51.01837158203125
C 55.821353912353516 53.41508483886719 52.29454803466797
C 56.844966888427734 54.46284484863281 52.196006774902344
H 56.48647689819336 55.37353515625 51.71166229248047
H 57.600704193115234 54.03614807128906 51.533241271972656
H 57.31352615356445 54.7037353515625 53.152496337890625
C 56.078121185302734 52.34380340576172 53.03041076660156
H 55.31570816040039 51.56627655029297 53.02052307128906
C 57.19363021850586 52.02904510498047 53.93724822998047
H 58.083927154541016 52.656036376953125 53.92411804199219
C 57.3773078918457 50.84941864013672 54.521026611328125
H 56.554203033447266 50.182106018066406 54.269813537597656
C 58.40054702758789 50.26234436035156 55.38587188720703
C 58.1130256652832 48.78502655029297 55.71538543701172
H 58.98855209350586 48.33007049560547 56.18327331542969
H 57.235469818115234 48.657737731933594 56.35267639160156
H 57.94253921508789 48.20756530761719 54.80437469482422
C 59.51792526245117 50.890472412109375 55.792625427246094
H 59.546077728271484 51.95521545410156 55.5657958984375
C 60.630672454833984 50.40839385986328 56.74177551269531
H 60.897342681884766 49.35826873779297 56.851531982421875
C 61.40122604370117 51.171546936035156 57.596099853515625
H 61.38627243041992 52.234275817871094 57.35881805419922
C 62.552547454833984 50.74822998046875 58.45310974121094
H 62.932003021240234 49.746543884277344 58.256736755371094
C 63.32182693481445 51.46015167236328 59.29344940185547
C 63.00654983520508 52.833213806152344 59.697898864746094
H 63.330875396728516 53.62145233154297 59.015289306640625
H 61.91946792602539 52.916648864746094 59.63658905029297
H 63.412174224853516 53.06028747558594 60.686012268066406
C 64.68228912353516 50.96525573730469 59.690765380859375
H 64.6762924194336 49.87645721435547 59.67039489746094
C 65.6717300415039 51.64060974121094 60.234642028808594
H 65.6275634765625 52.72845458984375 60.25853729248047
C 66.9166259765625 51.049346923828125 60.82814025878906
H 66.97493743896484 49.971275329589844 60.970558166503906
C 68.06190490722656 51.67987823486328 61.084617614746094
C 68.1336669921875 53.14740753173828 60.77588653564453
H 68.00984954833984 53.26075744628906 59.696868896484375
H 67.38298797607422 53.64856719970703 61.390533447265625
H 69.14289855957031 53.47547912597656 61.0333251953125
C 69.26579284667969 51.07627868652344 61.565345764160156
H 69.89327239990234 51.672454833984375 62.226234436035156
C 69.75163269042969 49.90229797363281 61.13746643066406
H 69.27303314208984 49.39665222167969 60.30009460449219
C 70.90480041503906 49.162376403808594 61.658058166503906
C 72.16056823730469 49.59771728515625 61.674468994140625
C 72.54139709472656 51.00691223144531 61.30963134765625
H 71.67414855957031 51.47674560546875 60.84101867675781
H 72.8342056274414 51.61003112792969 62.171592712402344
H 73.28921508789062 50.96434020996094 60.51500701904297
C 73.3006820678711 48.90943908691406 62.39031982421875
H 73.26319885253906 49.35162353515625 63.38807678222656
H 74.21209716796875 49.10509490966797 61.821556091308594
C 73.02217864990234 47.36686325073242 62.538543701171875
H 73.77566528320312 46.94034194946289 63.2039794921875
H 73.08039855957031 46.874305725097656 61.56568145751953
C 71.588623046875 47.152923583984375 63.07239532470703
H 71.44312286376953 46.095970153808594 63.305076599121094
H 71.56826782226562 47.738670349121094 63.99378204345703
C 70.49237823486328 47.779300689697266 62.12177276611328
C 70.38896179199219 46.80033874511719 60.94243621826172
H 71.3410873413086 46.69983673095703 60.41724395751953
H 70.01594543457031 45.845943450927734 61.31986999511719
H 69.63165283203125 47.037654876708984 60.192359924316406
C 69.13231658935547 47.75262451171875 62.799903869628906
H 68.95708465576172 48.57988739013672 63.49082946777344
H 68.3676528930664 47.67124557495117 62.02458190917969
H 69.06291961669922 46.8469123840332 63.405982971191406
