207
Triad, Carotenoid-Porphyrin-C60
C 45.536991119384766 64.04930114746094 54.98868179321289
C 45.63358688354492 58.11332321166992 52.759429931640625
C 44.54277420043945 59.856754302978516 51.8979606628418
C 44.68136215209961 62.2044792175293 52.051063537597656
C 47.50191879272461 57.49296188354492 54.19667434692383
C 46.124324798583984 57.47157669067383 53.8956184387207
C 47.82960891723633 58.77457046508789 52.19476318359375
C 46.49599075317383 60.98823928833008 51.03833770751953
C 47.59737014770508 64.0051040649414 54.11906051635742
C 48.30817794799805 58.17106246948242 53.326045989990234
C 45.39505386352539 63.893253326416016 53.598690032958984
C 48.54265213012695 59.324222564697266 57.19823455810547
C 47.71686935424805 57.632022857666016 55.58848571777344
C 48.55219650268555 61.7435417175293 57.218292236328125
C 49.35173416137695 62.72732162475586 55.18429946899414
C 48.689266204833984 62.81167984008789 56.368282318115234
C 49.50661087036133 59.17782974243164 55.1328125
C 48.5145378112793 59.940067291259766 51.86448669433594
C 47.87028884887695 61.082584381103516 51.33447265625
C 49.119503021240234 62.49100112915039 52.94875717163086
C 42.950077056884766 60.14113235473633 55.88058853149414
C 43.97035598754883 59.040523529052734 56.252906799316406
C 43.18607711791992 60.054080963134766 54.365169525146484
C 43.76032638549805 58.846866607666016 53.994144439697266
C 46.61134719848633 62.83271408081055 57.32900619506836
C 44.96992111206055 59.187618255615234 57.207637786865234
C 44.359615325927734 63.07912826538086 53.1376838684082
C 47.22389602661133 59.314090728759766 57.705970764160156
C 46.44279098510742 57.672672271728516 56.1346321105957
C 47.29079818725586 61.70988845825195 57.796348571777344
C 43.38019943237305 61.145931243896484 53.548465728759766
C 49.81166458129883 60.412837982177734 55.648765563964844
C 49.90829849243164 61.535579681396484 54.80646514892578
C 48.13706588745117 62.31148910522461 51.93698501586914
C 49.441349029541016 60.09843826293945 52.86974334716797
C 43.238224029541016 61.51713180541992 56.50431442260742
C 44.514347076416016 61.57303237915039 57.37226104736328
C 43.60080337524414 62.6166877746582 55.49355697631836
C 45.216556549072266 62.77085494995117 57.08451461791992
C 48.81834030151367 63.32596969604492 54.0689697265625
C 44.25959396362305 58.2426872253418 55.17184829711914
C 43.562435150146484 62.389896392822266 54.072261810302734
C 44.71425247192383 63.38882064819336 55.94145584106445
C 44.01704788208008 61.06401443481445 52.31200408935547
C 47.48149490356445 63.53861618041992 56.44074249267578
C 45.265132904052734 60.448184967041016 57.74989318847656
C 46.22897720336914 58.535457611083984 57.173248291015625
C 44.43950271606445 58.74558639526367 52.72643280029297
C 45.43241500854492 57.54097366333008 55.14855194091797
C 49.759700775146484 61.3427848815918 53.42536926269531
C 46.59866714477539 60.52119827270508 58.01340866088867
C 46.9195442199707 64.11809539794922 55.29862976074219
C 46.48201370239258 58.719783782958984 51.9026985168457
C 45.82914352416992 59.765987396240234 51.31925582885742
C 45.93277359008789 62.197689056396484 51.46352767944336
C 46.664119720458984 63.85513687133789 53.060455322265625
C 48.73871994018555 58.488040924072266 56.10808181762695
C 49.172672271728516 60.518001556396484 56.9015007019043
C 46.92121505737305 63.02976608276367 51.94618606567383
C 49.318363189697266 59.03030776977539 53.802913665771484
C 41.52847671508789 59.784420013427734 56.238155364990234
N 40.91543960571289 60.63833236694336 57.035423278808594
C 41.96628189086914 61.71013259887695 57.39692306518555
H 42.13457107543945 61.792362213134766 58.4737548828125
H 41.55946731567383 62.71614456176758 57.266178131103516
C 39.388729095458984 56.738346099853516 53.87104034423828
C 39.54143142700195 58.076786041259766 53.43205642700195
H 39.14931106567383 58.34074783325195 52.45321273803711
C 40.25717544555664 59.08382034301758 54.1672248840332
H 40.29658126831055 60.12668991088867 53.86320114135742
C 40.74391555786133 58.77817153930664 55.41613006591797
C 40.028934478759766 56.49684524536133 55.09967803955078
H 40.047542572021484 55.47392654418945 55.46692657470703
C 40.65339279174805 57.463321685791016 55.8272819519043
H 41.074642181396484 57.230167388916016 56.801841735839844
C 38.816890716552734 55.62263107299805 53.059749603271484
C 38.55989074707031 55.889225006103516 51.63441848754883
C 37.79816818237305 56.79252243041992 50.989036560058594
H 37.24275207519531 57.62192153930664 51.41429901123047
C 38.047096252441406 56.639835357666016 49.56591796875
H 37.63487243652344 57.2857780456543 48.79776382446289
C 38.98472213745117 55.64437484741211 49.42255401611328
N 39.16085433959961 55.08391189575195 50.64860153198242
H 39.737247467041016 54.28763961791992 50.884925842285156
C 39.627933502197266 55.21559524536133 48.21818161010742
H 39.35954666137695 55.85880661010742 47.38142013549805
C 40.369998931884766 54.0620002746582 48.004329681396484
C 41.42495346069336 54.05722427368164 47.103759765625
H 41.65851974487305 54.8740348815918 46.42885971069336
C 42.04804611206055 52.86592483520508 47.34815979003906
H 42.92526626586914 52.4944953918457 46.82878112792969
C 41.20969772338867 52.10306930541992 48.19746398925781
N 40.322879791259766 52.94621658325195 48.731449127197266
C 41.40084457397461 50.72616195678711 48.657257080078125
C 40.99821853637695 50.29057693481445 49.84765625
C 40.629268646240234 48.980716705322266 50.2867431640625
H 40.830989837646484 48.056880950927734 49.75471115112305
C 40.05219650268555 49.03667068481445 51.560298919677734
H 39.656490325927734 48.20743179321289 52.137367248535156
C 40.08357620239258 50.400569915771484 52.03762435913086
N 40.60886001586914 51.0827522277832 50.94584274291992
H 40.865779876708984 52.05793380737305 51.017513275146484
C 39.53995132446289 50.86893081665039 53.18424606323242
H 39.18980026245117 50.100826263427734 53.87223434448242
C 39.27073287963867 52.223995208740234 53.64567184448242
C 38.593116760253906 52.65793991088867 54.873619079589844
H 38.23387145996094 51.94046401977539 55.60395050048828
C 38.345664978027344 53.98762893676758 54.664581298828125
H 37.75648498535156 54.606807708740234 55.33294677734375
C 38.82748794555664 54.3210334777832 53.502845764160156
N 39.34492874145508 53.29441452026367 52.84355926513672
C 43.134517669677734 47.83584976196289 45.92283248901367
C 43.31572341918945 47.67575454711914 47.27768325805664
H 43.87736892700195 46.80807876586914 47.614227294921875
C 42.765316009521484 48.60544204711914 48.168521881103516
H 42.93593978881836 48.37251663208008 49.21648025512695
C 42.09629440307617 49.78300094604492 47.78145217895508
C 42.57954788208008 49.05482864379883 45.47316360473633
H 42.49020004272461 49.24917221069336 44.40741729736328
C 42.02603530883789 49.99919509887695 46.4373893737793
H 41.46206283569336 50.82631301879883 46.01383972167969
N 43.66804885864258 46.88713455200195 44.95252990722656
H 43.06492233276367 46.774593353271484 44.15149688720703
C 44.89272689819336 46.31425094604492 44.89577102661133
O 45.74113082885742 46.610286712646484 45.720706939697266
C 45.12845993041992 45.53583908081055 43.62714385986328
C 46.21116256713867 44.63625717163086 43.535240173339844
H 46.991703033447266 44.670230865478516 44.29100036621094
C 46.54146194458008 44.02847671508789 42.329124450683594
C 45.83242416381836 44.289730072021484 41.163291931152344
H 46.08314895629883 43.86155319213867 40.196144104003906
C 44.769535064697266 45.13589096069336 41.21809005737305
H 44.088077545166016 45.34099197387695 40.39643478393555
C 44.38943862915039 45.804256439208984 42.40816879272461
H 43.61464309692383 46.56245040893555 42.32819747924805
C 47.76662063598633 43.15510177612305 42.3479118347168
H 48.35079574584961 43.15635299682617 43.266963958740234
C 48.28037643432617 42.38969421386719 41.40526580810547
H 47.78250503540039 42.302860260009766 40.440635681152344
C 49.44047164916992 41.58330154418945 41.53843307495117
C 50.090457916259766 41.28947830200195 40.21109390258789
H 49.923152923583984 40.236324310302734 39.97584915161133
H 51.166751861572266 41.47403335571289 40.213172912597656
H 49.67989730834961 41.84679412841797 39.366519927978516
C 50.09849166870117 41.396759033203125 42.671241760253906
H 49.54410934448242 41.6807975769043 43.56449508666992
C 51.2555046081543 40.530494689941406 42.88439178466797
H 51.58279037475586 40.15365982055664 41.916507720947266
C 51.86748123168945 40.22232437133789 44.06943893432617
H 51.467472076416016 40.60460662841797 45.00740051269531
C 53.145877838134766 39.59873962402344 44.23524475097656
C 53.45528793334961 39.421653747558594 45.69957733154297
H 54.53708267211914 39.2971076965332 45.78128433227539
H 53.1409797668457 40.261566162109375 46.322654724121094
H 52.921878814697266 38.56553268432617 46.11789321899414
C 53.7385368347168 38.878421783447266 43.35740280151367
H 53.35507583618164 38.85041809082031 42.338531494140625
C 54.92238998413086 37.982330322265625 43.59685516357422
H 55.1242561340332 37.68867874145508 44.62590408325195
C 55.60304641723633 37.44110870361328 42.55741882324219
H 55.24283218383789 37.67899703979492 41.55763244628906
C 56.66444778442383 36.46835708618164 42.67994689941406
H 56.8759651184082 36.080265045166016 43.67522430419922
C 57.34959030151367 35.89204406738281 41.605377197265625
C 57.22982406616211 36.44951629638672 40.20545959472656
H 56.19045639038086 36.510948181152344 39.87619400024414
H 57.63795852661133 37.46039962768555 40.26872253417969
H 57.799983978271484 35.94577407836914 39.4221076965332
C 58.364253997802734 34.879722595214844 41.70830154418945
H 58.742130279541016 34.35234832763672 40.833656311035156
C 58.97807693481445 34.453704833984375 42.842529296875
H 58.6767692565918 34.84269714355469 43.81403732299805
C 60.04288864135742 33.38903045654297 42.74647903442383
H 60.5390739440918 33.26042556762695 41.7856559753418
C 60.44608688354492 32.5505485534668 43.74937438964844
C 59.82404708862305 32.63042449951172 45.1326904296875
H 58.75041580200195 32.59733581542969 44.936004638671875
H 60.016719818115234 31.695476531982422 45.66299057006836
H 60.1771354675293 33.53308868408203 45.63566207885742
C 61.61899185180664 31.74413299560547 43.61519241333008
H 62.075565338134766 31.593997955322266 44.59239959716797
C 62.12955856323242 31.114253997802734 42.53782272338867
H 61.77291488647461 31.401020050048828 41.549644470214844
C 63.355167388916016 30.27362823486328 42.648590087890625
C 63.6166877746582 29.482685089111328 43.712215423583984
C 62.62943649291992 29.250808715820312 44.92586898803711
H 61.57503128051758 29.491329193115234 44.77471923828125
H 62.74831008911133 28.20116424560547 45.202598571777344
H 63.05417251586914 29.73345184326172 45.80854797363281
C 64.81188201904297 28.63835906982422 43.79031753540039
H 64.54029083251953 27.613784790039062 43.52772521972656
H 65.01171875 28.530433654785156 44.858436584472656
C 66.04573822021484 29.140392303466797 42.97243881225586
H 66.97332763671875 28.57379913330078 43.0773811340332
H 66.31179809570312 30.151851654052734 43.28648376464844
C 65.44485473632812 29.30176544189453 41.54737854003906
H 66.31098937988281 29.700313568115234 41.01499938964844
H 65.24974822998047 28.3736572265625 41.00607681274414
C 64.35224151611328 30.328475952148438 41.44495391845703
C 64.86011505126953 31.767833709716797 41.32814407348633
H 65.35737609863281 32.114864349365234 42.23630905151367
H 65.45626831054688 31.953216552734375 40.432212829589844
H 64.08184814453125 32.51961898803711 41.18122863769531
C 63.62698745727539 30.004608154296875 40.16398620605469
H 63.19315719604492 29.024391174316406 40.372379302978516
H 62.80997848510742 30.704437255859375 39.97637176513672
H 64.28104400634766 29.983684539794922 39.289772033691406
