207
Triad, Carotenoid-Porphyrin-C60
C 51.43634796142578 57.158931732177734 32.46595001220703
C 53.65547180175781 51.27791976928711 31.96626853942871
C 51.504852294921875 51.86911392211914 31.781648635864258
C 50.38360595703125 53.99818801879883 31.33257484436035
C 55.87754821777344 52.09598922729492 31.74643325805664
C 54.882286071777344 51.52042007446289 32.54500961303711
C 54.36610412597656 52.257259368896484 29.928979873657227
C 51.779685974121094 53.05239486694336 29.65005874633789
C 52.33717346191406 57.33926010131836 30.4066162109375
C 55.658592224121094 52.39609146118164 30.42662239074707
C 50.72563171386719 56.347408294677734 31.62045669555664
C 56.97193145751953 55.3466911315918 32.905025482177734
C 56.499176025390625 53.0352668762207 32.56763458251953
C 55.782508850097656 57.39877700805664 32.476566314697266
C 54.76061248779297 57.38651657104492 30.311601638793945
C 54.82970428466797 57.92013168334961 31.61195182800293
C 56.890525817871094 54.52383804321289 30.765045166015625
C 54.08709716796875 53.26425552368164 29.02538299560547
C 52.73999786376953 53.63028335571289 28.820261001586914
C 53.60621643066406 56.00052261352539 28.897554397583008
C 52.18544006347656 53.75925827026367 35.58261489868164
C 53.64744567871094 53.39204788208008 35.420108795166016
C 51.6866455078125 52.97328567504883 34.39051055908203
C 52.60797882080078 52.03506851196289 33.96064376831055
C 53.85212707519531 57.776798248291016 33.61355209350586
C 54.72642517089844 54.31907272338867 35.36025619506836
C 50.25969696044922 55.1461067199707 32.09061813354492
C 56.39619445800781 55.29801559448242 34.18983459472656
C 55.982696533203125 52.97712326049805 33.839378356933594
C 55.204864501953125 57.34352493286133 33.713809967041016
C 50.72254180908203 53.45497512817383 33.446128845214844
C 56.57080078125 55.8570671081543 30.784229278564453
C 55.659515380859375 56.40945816040039 29.87843132019043
C 52.55482482910156 55.0280647277832 28.80445671081543
C 55.146324157714844 54.15889358520508 29.11057472229004
C 51.91399383544922 55.35499954223633 35.50385284423828
C 53.12957000732422 56.21438980102539 35.29967498779297
C 51.07667541503906 55.72654342651367 34.31080627441406
C 52.84539031982422 57.15182113647461 34.35519790649414
C 53.49877166748047 57.11500930786133 29.65630531311035
C 53.77455139160156 52.2729606628418 34.61700439453125
C 50.4647216796875 54.75466537475586 33.4293098449707
C 51.60169219970703 56.85012435913086 33.77804946899414
C 50.683387756347656 52.91220474243164 32.174705505371094
C 53.65033721923828 58.0942497253418 32.31816101074219
C 54.46754455566406 55.70724105834961 35.37679672241211
C 55.88341522216797 54.13779067993164 34.640411376953125
C 52.530113220214844 51.534427642822266 32.670841217041016
C 54.930809020996094 52.094303131103516 33.8346061706543
C 54.919151306152344 55.53608322143555 29.062911987304688
C 55.479156494140625 56.31633377075195 34.613914489746094
C 52.441307067871094 57.738407135009766 31.74785614013672
C 53.39331817626953 51.54050827026367 30.636133193969727
C 52.03410339355469 51.92233657836914 30.519798278808594
C 50.88849639892578 54.07997512817383 30.08661651611328
C 51.25232696533203 56.43325424194336 30.327478408813477
C 57.008544921875 54.2180290222168 32.1314582824707
C 56.717857360839844 56.3969612121582 32.090248107910156
C 51.369056701660156 55.25374984741211 29.523998260498047
C 56.106895446777344 53.625667572021484 29.933380126953125
C 51.45232391357422 53.36747360229492 36.79494094848633
N 51.08196258544922 54.30936813354492 37.53376388549805
C 51.27587127685547 55.58757400512695 36.91265869140625
H 51.95189666748047 56.15431594848633 37.5579833984375
H 50.284141540527344 56.039546966552734 36.99544906616211
C 51.91319274902344 49.495052337646484 38.763427734375
C 52.75261688232422 50.60452651977539 38.96923828125
H 53.57676696777344 50.63199996948242 39.677467346191406
C 52.63660430908203 51.809024810791016 38.324100494384766
H 53.26017761230469 52.67107009887695 38.54680633544922
C 51.636573791503906 51.99045944213867 37.396331787109375
C 50.93470001220703 49.6961784362793 37.787940979003906
H 50.1947021484375 48.91615676879883 37.628116607666016
C 50.795257568359375 50.95366287231445 37.1334228515625
H 49.95764923095703 51.160335540771484 36.4721565246582
C 52.08055114746094 48.21743392944336 39.501983642578125
C 53.19445037841797 48.120296478271484 40.38383483886719
C 54.54606628417969 48.38132858276367 40.325862884521484
H 55.11033630371094 48.644657135009766 39.43733215332031
C 55.138465881347656 48.198978424072266 41.56349563598633
H 56.212066650390625 48.18497085571289 41.719749450683594
C 54.15606689453125 47.8477897644043 42.42137908935547
N 53.03129577636719 47.79741287231445 41.68564224243164
H 52.09568786621094 47.80141067504883 42.06869888305664
C 54.282867431640625 47.50057601928711 43.7797966003418
H 55.27338409423828 47.60654830932617 44.21975326538086
C 53.342552185058594 47.035953521728516 44.65907669067383
C 53.57676696777344 46.24467849731445 45.8431282043457
H 54.56101989746094 46.0063362121582 46.23256301879883
C 52.34166717529297 45.93657302856445 46.30680847167969
H 52.171287536621094 45.21586227416992 47.09975814819336
C 51.300537109375 46.45322036743164 45.364376068115234
N 51.99114227294922 47.01091384887695 44.344139099121094
C 49.89878845214844 46.18735885620117 45.28485870361328
C 49.41783142089844 45.4379768371582 44.25068664550781
C 48.73328399658203 44.20076370239258 44.35879135131836
H 48.406822204589844 43.90315628051758 45.34979248046875
C 48.61094665527344 43.53914260864258 43.11166000366211
H 48.162086486816406 42.62729263305664 42.73181915283203
C 49.21825408935547 44.3860969543457 42.149940490722656
N 49.74559020996094 45.424373626708984 42.951324462890625
H 50.19586181640625 46.2195930480957 42.51887893676758
C 49.347129821777344 44.391292572021484 40.82228088378906
H 48.90125274658203 43.5317497253418 40.3239860534668
C 49.95177459716797 45.41975021362305 39.903133392333984
C 50.072303771972656 45.488468170166016 38.43241882324219
H 49.72893524169922 44.74630355834961 37.71931838989258
C 50.90043640136719 46.58218002319336 38.19820022583008
H 51.22486877441406 46.80410385131836 37.18690490722656
C 51.170265197753906 47.17781448364258 39.36106872558594
N 50.54778289794922 46.4889030456543 40.37688064575195
C 47.235595703125 47.59476852416992 48.38220977783203
C 46.696510314941406 47.20657730102539 47.15164566040039
H 45.623443603515625 47.22683334350586 46.979347229003906
C 47.55548095703125 46.67232131958008 46.17292022705078
H 47.07555389404297 46.37100601196289 45.24531173706055
C 48.979888916015625 46.75685501098633 46.30730056762695
C 48.61949157714844 47.62515640258789 48.55706787109375
H 49.015480041503906 47.97678756713867 49.506343841552734
C 49.44554138183594 47.33881759643555 47.46673583984375
H 50.523887634277344 47.359981536865234 47.601985931396484
N 46.26361083984375 48.1179084777832 49.26737594604492
H 45.58949279785156 48.72468185424805 48.82525634765625
C 45.99855041503906 47.52663803100586 50.4745979309082
O 46.644264221191406 46.56569290161133 50.858848571777344
C 44.774688720703125 48.00839614868164 51.22624206542969
C 44.660247802734375 47.56196975708008 52.54351806640625
H 45.49757385253906 46.9593391418457 52.885982513427734
C 43.55201721191406 48.03469467163086 53.29018783569336
C 42.55302429199219 48.72195053100586 52.631202697753906
H 41.771331787109375 49.199642181396484 53.216304779052734
C 42.66355895996094 49.0818977355957 51.2648811340332
H 41.87408447265625 49.71266555786133 50.864341735839844
C 43.83698272705078 48.79453659057617 50.627498626708984
H 43.981689453125 48.97116470336914 49.56475067138672
C 43.373199462890625 47.711483001708984 54.69965744018555
H 44.232261657714844 47.20737075805664 55.13987731933594
C 42.35247802734375 47.94953536987305 55.52760696411133
H 41.57867431640625 48.582210540771484 55.09531021118164
C 42.30335998535156 47.74555587768555 56.95655822753906
C 41.214576721191406 48.52596664428711 57.63315963745117
H 40.737518310546875 49.21419143676758 56.93228530883789
H 41.51213836669922 49.29397964477539 58.35015869140625
H 40.55529022216797 47.86056137084961 58.1944465637207
C 43.1524658203125 46.85667037963867 57.5605354309082
H 43.894020080566406 46.34994125366211 56.94470977783203
C 43.27043151855469 46.62721633911133 58.97673797607422
H 42.34049987792969 46.73521041870117 59.533042907714844
C 44.398155212402344 46.20194625854492 59.576698303222656
H 45.30512237548828 46.074947357177734 58.98746109008789
C 44.58830261230469 45.722354888916016 60.95155715942383
C 45.88477325439453 44.9390983581543 61.184417724609375
H 45.69959259033203 43.89542770385742 61.44696807861328
H 46.60835266113281 45.00918197631836 60.369564056396484
H 46.366180419921875 45.28315353393555 62.10220718383789
C 43.776206970214844 45.90493392944336 61.98859405517578
H 42.90703582763672 46.470333099365234 61.65576171875
C 43.90179443359375 45.5987663269043 63.35688018798828
H 44.866661071777344 45.15494155883789 63.59763717651367
C 42.94457244873047 45.69998550415039 64.27552795410156
H 42.01332092285156 46.19611740112305 64.00617218017578
C 43.043853759765625 45.189266204833984 65.6697006225586
H 43.57465362548828 44.26840591430664 65.90674591064453
C 42.503868103027344 45.836978912353516 66.68634033203125
C 41.80695343017578 47.057369232177734 66.41600036621094
H 41.455421447753906 47.43172836303711 67.37971496582031
H 42.468772888183594 47.883365631103516 66.14730072021484
H 40.989532470703125 46.8554801940918 65.72064208984375
C 42.54978942871094 45.45933151245117 68.09063720703125
H 41.958763122558594 46.06428146362305 68.77667236328125
C 43.16985321044922 44.4172477722168 68.6214599609375
H 43.687469482421875 43.78102493286133 67.90506744384766
C 43.38188171386719 44.085872650146484 70.03739929199219
H 42.56169128417969 44.44758987426758 70.65576171875
C 44.36369323730469 43.33610916137695 70.54271697998047
C 45.514137268066406 42.73126983642578 69.6731185913086
H 45.60057830810547 43.440792083740234 68.84754943847656
H 46.461578369140625 42.7706184387207 70.21467590332031
H 45.14091491699219 41.747047424316406 69.3824691772461
C 44.396812438964844 42.88864517211914 71.94988250732422
H 45.287925720214844 42.34968185424805 72.26828002929688
C 43.44813537597656 43.12289810180664 72.91609954833984
H 42.499534606933594 43.59206008911133 72.65925598144531
C 43.61729431152344 42.718414306640625 74.30601501464844
C 44.729522705078125 42.93901443481445 75.04289245605469
C 45.868255615234375 43.756839752197266 74.60808563232422
H 46.31415557861328 44.1705207824707 75.51500701904297
H 46.629356384277344 43.13042068481445 74.13819122314453
H 45.477081298828125 44.55827713012695 73.9778823852539
C 45.016624450683594 42.47842788696289 76.40856170654297
H 44.95471954345703 43.34432601928711 77.0710220336914
H 46.060142517089844 42.16500473022461 76.48138427734375
C 44.048011779785156 41.396175384521484 76.97473907470703
H 44.10594177246094 41.3559455871582 78.06446075439453
H 44.45433044433594 40.458465576171875 76.5899429321289
C 42.610557556152344 41.73296356201172 76.5244140625
H 41.929344177246094 40.95244598388672 76.86967468261719
H 42.42669677734375 42.73142623901367 76.92658996582031
C 42.4742431640625 41.899513244628906 74.9759292602539
C 42.3367919921875 40.45893096923828 74.3975601196289
H 42.1732177734375 40.493934631347656 73.31844329833984
H 43.13653564453125 39.800907135009766 74.7437973022461
H 41.37152099609375 40.04157638549805 74.69172668457031
C 41.06224060058594 42.45304489135742 74.70162200927734
H 40.784996032714844 42.32196044921875 73.65357208251953
H 40.29833221435547 41.91891860961914 75.27049255371094
H 40.969818115234375 43.4751091003418 75.07485961914062
