207
Triad, Carotenoid-Porphyrin-C60
C 51.87594985961914 57.64392852783203 50.38923645019531
C 49.810977935791016 54.645751953125 45.052978515625
C 51.252933502197266 53.983985900878906 46.61177062988281
C 51.920963287353516 54.439796447753906 48.903289794921875
C 48.07413864135742 56.278076171875 44.83838653564453
C 49.28681564331055 55.811668395996094 44.39457702636719
C 47.8383674621582 54.46559143066406 46.41338348388672
C 49.63691329956055 53.680274963378906 48.37946319580078
C 49.84553909301758 57.00569152832031 51.12602996826172
C 47.32131576538086 55.607444763183594 45.786346435546875
C 51.892765045166016 56.235740661621094 50.46478271484375
C 48.01865005493164 59.548728942871094 46.352500915527344
C 48.1163215637207 57.68217468261719 44.822235107421875
C 48.646907806396484 60.007102966308594 48.713768005371094
C 47.931278228759766 58.14942932128906 50.139862060546875
C 48.743900299072266 59.23918151855469 49.86680603027344
C 46.76408004760742 57.783538818359375 46.789703369140625
C 47.51742172241211 54.5390625 47.817474365234375
C 48.44375991821289 54.124969482421875 48.81195831298828
C 47.83700942993164 55.8914794921875 50.202308654785156
C 53.284854888916016 57.60437774658203 45.82781982421875
C 52.13834762573242 58.02862548828125 44.996299743652344
C 52.954471588134766 56.179840087890625 45.979576110839844
C 52.003238677978516 55.71180725097656 45.09978485107422
C 50.7926139831543 59.89189147949219 49.18003845214844
C 51.2972297668457 59.091819763183594 45.31147766113281
C 52.558231353759766 55.495635986328125 49.50902557373047
C 49.3161735534668 59.91386413574219 45.910736083984375
C 49.38490676879883 58.06226348876953 44.44773864746094
C 49.90163803100586 60.336082458496094 48.25682830810547
C 52.97706985473633 55.49994659423828 47.24066162109375
C 46.87301254272461 58.46375274658203 47.996681213378906
C 46.98849105834961 57.71173095703125 49.18854522705078
C 48.566410064697266 54.715850830078125 50.044677734375
C 46.72249221801758 55.6737060546875 47.99583435058594
C 53.51639938354492 58.390419006347656 47.17716979980469
C 52.4085807800293 59.41264343261719 47.43951416015625
C 53.34719467163086 57.519615173339844 48.48272705078125
C 52.09025955200195 59.372528076171875 48.820831298828125
C 48.4362678527832 57.00634765625 50.803985595703125
C 51.483699798583984 56.87364959716797 44.49193572998047
C 53.18288803100586 56.15708923339844 48.46124267578125
C 52.622066497802734 58.27741241455078 49.42250061035156
C 52.219181060791016 54.390830993652344 47.52264404296875
C 50.11891555786133 59.24632263183594 50.21495056152344
C 51.493221282958984 59.79461669921875 46.500526428222656
C 49.97677993774414 59.218597412109375 44.937652587890625
C 51.1353645324707 54.63025665283203 45.398040771484375
C 50.10292434692383 56.923072814941406 44.186363220214844
C 46.89640426635742 56.349464416503906 49.25956726074219
C 50.24167251586914 60.2718505859375 46.900840759277344
C 50.66001510620117 58.075218200683594 50.794700622558594
C 49.08427047729492 53.95677185058594 46.07880401611328
C 49.95199203491211 53.608551025390625 47.05598449707031
C 50.613216400146484 54.046417236328125 49.32495880126953
C 50.60298538208008 55.852081298828125 50.824851989746094
C 47.46791458129883 58.41401672363281 45.79064178466797
C 47.71408462524414 59.52082824707031 47.740234375
C 49.98564529418945 54.70050811767578 50.36780548095703
C 46.68217849731445 56.387489318847656 46.759849548339844
C 54.63004684448242 57.81817626953125 45.151084899902344
N 55.431522369384766 58.61741638183594 45.76829528808594
C 54.81778335571289 59.15509033203125 46.99238586425781
H 54.62948989868164 60.23078155517578 46.94677734375
H 55.518985748291016 58.808563232421875 47.75584411621094
C 55.8599739074707 55.266815185546875 41.80332565307617
C 56.22080612182617 55.006622314453125 43.11976623535156
H 56.87063980102539 54.13832092285156 43.19285583496094
C 55.87260818481445 55.813560485839844 44.2427978515625
H 56.21317672729492 55.52210235595703 45.233070373535156
C 55.03744888305664 56.917701721191406 44.094207763671875
C 55.11110305786133 56.44489288330078 41.65715408325195
H 54.68659591674805 56.60087585449219 40.668704986572266
C 54.62056350708008 57.16942596435547 42.73578643798828
H 53.9510612487793 57.998626708984375 42.52185821533203
C 56.07683181762695 54.176429748535156 40.69375228881836
C 56.63908767700195 52.928382873535156 41.07799530029297
C 57.82626724243164 52.47509002685547 41.634666442871094
H 58.67311477661133 53.140220642089844 41.76760482788086
C 57.71816635131836 51.00325012207031 41.71616744995117
H 58.55672836303711 50.42369842529297 42.08785629272461
C 56.44290542602539 50.638710021972656 41.32685470581055
N 55.8327522277832 51.842918395996094 41.00556182861328
H 54.972354888916016 51.82939910888672 40.474853515625
C 55.79654312133789 49.35962677001953 41.339176177978516
H 56.477848052978516 48.53746795654297 41.553192138671875
C 54.61689376831055 49.04407501220703 40.7019157409668
C 54.07035446166992 47.782222747802734 40.57902526855469
H 54.55317306518555 46.84671401977539 40.84157943725586
C 52.82828903198242 47.87763977050781 40.04926300048828
H 52.079524993896484 47.153472900390625 39.74568176269531
C 52.59829330444336 49.282222747802734 39.93480682373047
N 53.66929244995117 49.97498321533203 40.29574203491211
C 51.34451675415039 49.89368438720703 39.486778259277344
C 51.34059524536133 50.95561218261719 38.598976135253906
C 50.625728607177734 51.03425598144531 37.34227752685547
H 49.829463958740234 50.36335754394531 37.037200927734375
C 51.02116012573242 52.20814514160156 36.691856384277344
H 50.6086540222168 52.655487060546875 35.793556213378906
C 52.03507614135742 52.82952880859375 37.472450256347656
N 52.14322280883789 52.01128387451172 38.531333923339844
H 52.662654876708984 52.25013732910156 39.36515426635742
C 52.882076263427734 53.87171936035156 37.16663360595703
H 52.53885269165039 54.31287384033203 36.232025146484375
C 53.99663162231445 54.38844299316406 37.88872146606445
C 54.90974044799805 55.455894470214844 37.65115737915039
H 54.908267974853516 55.94364929199219 36.68196487426758
C 55.72749710083008 55.50836181640625 38.73402404785156
H 56.56742477416992 56.172576904296875 38.90883255004883
C 55.43159103393555 54.43745422363281 39.522064208984375
N 54.38999557495117 53.78349304199219 39.015281677246094
C 47.70487594604492 49.1515007019043 41.61756134033203
C 47.72370529174805 50.11566925048828 40.59907150268555
H 46.825687408447266 50.683143615722656 40.3686408996582
C 48.92853927612305 50.39396667480469 39.953407287597656
H 48.9563102722168 51.280784606933594 39.3254280090332
C 50.11287307739258 49.58981704711914 40.17949295043945
C 48.82694625854492 48.36021041870117 41.85927200317383
H 48.781429290771484 47.63412857055664 42.666927337646484
C 50.02585983276367 48.66072082519531 41.19318389892578
H 50.97648239135742 48.23485565185547 41.50386428833008
N 46.59929275512695 48.79603958129883 42.37131881713867
H 46.80949020385742 48.65198516845703 43.34761047363281
C 45.2800407409668 48.80026626586914 41.995208740234375
O 44.8937873840332 49.05891036987305 40.89508056640625
C 44.306453704833984 48.6006965637207 43.131736755371094
C 44.53899002075195 47.813941955566406 44.283180236816406
H 45.4301872253418 47.191768646240234 44.29850769042969
C 43.64158630371094 47.636138916015625 45.311851501464844
C 42.4476318359375 48.32979202270508 45.27301788330078
H 41.79303741455078 48.30040740966797 46.14031982421875
C 42.047264099121094 49.15393829345703 44.169822692871094
H 41.019813537597656 49.50413513183594 44.112632751464844
C 43.021026611328125 49.21072769165039 43.08768844604492
H 42.764549255371094 49.796966552734375 42.208984375
C 43.91547775268555 46.71783447265625 46.45176696777344
H 44.910587310791016 46.27556610107422 46.4608154296875
C 43.02434539794922 46.304832458496094 47.455810546875
H 42.004215240478516 46.684913635253906 47.42761993408203
C 43.274593353271484 45.410579681396484 48.60380554199219
C 42.326332092285156 45.47220993041992 49.72322082519531
H 41.64899826049805 46.31992721557617 49.60050964355469
H 42.90379333496094 45.80805206298828 50.587059020996094
H 41.796234130859375 44.51862335205078 49.769386291503906
C 44.2592658996582 44.46672821044922 48.677398681640625
H 44.814395904541016 44.307464599609375 47.754150390625
C 44.50173568725586 43.56648254394531 49.806243896484375
H 44.07197952270508 43.7872200012207 50.782203674316406
C 45.175228118896484 42.38832092285156 49.70454406738281
H 45.51054763793945 42.15214538574219 48.69573211669922
C 45.400516510009766 41.368003845214844 50.67437744140625
C 46.029422760009766 40.18910217285156 50.005516052246094
H 46.2409553527832 39.3694953918457 50.69541931152344
H 45.467105865478516 39.64875411987305 49.241127014160156
H 47.0030632019043 40.472007751464844 49.5999755859375
C 44.961116790771484 41.29283905029297 51.93017578125
H 44.4075813293457 42.19883728027344 52.17242431640625
C 45.021663665771484 40.308433532714844 53.04438781738281
H 45.429683685302734 39.315303802490234 52.86235046386719
C 44.436222076416016 40.65272521972656 54.219390869140625
H 44.16086959838867 41.706329345703125 54.22416687011719
C 44.45188522338867 39.919212341308594 55.46345520019531
H 44.6756477355957 38.85346984863281 55.470619201660156
C 43.95359420776367 40.37133026123047 56.6251220703125
C 43.626312255859375 41.78766632080078 56.815887451171875
H 42.912757873535156 42.166160583496094 56.08100891113281
H 43.22731018066406 42.07887649536133 57.789772033691406
H 44.55482864379883 42.3565673828125 56.7342529296875
C 43.889888763427734 39.52924728393555 57.838600158691406
H 43.67424011230469 40.07439422607422 58.75633239746094
C 43.92119216918945 38.169002532958984 57.92627716064453
H 44.04488754272461 37.56556701660156 57.028228759765625
C 43.929630279541016 37.548892974853516 59.26873016357422
H 43.55223846435547 38.15372085571289 60.091941833496094
C 44.41200637817383 36.355140686035156 59.663291931152344
C 45.18931198120117 35.530677795410156 58.73143768310547
H 44.662479400634766 34.57695388793945 58.65850067138672
H 45.2867317199707 35.95720672607422 57.73091125488281
H 46.19821548461914 35.33320617675781 59.09962463378906
C 44.53071975708008 35.9233283996582 61.051849365234375
H 44.33895492553711 36.67497253417969 61.81616973876953
C 44.7690544128418 34.63943862915039 61.458473205566406
H 44.7855339050293 33.78230285644531 60.78693389892578
C 44.7123908996582 34.3326530456543 62.90045166015625
C 45.57777786254883 34.868106842041016 63.825286865234375
C 46.77360916137695 35.771820068359375 63.53135681152344
H 46.5717658996582 36.81291580200195 63.791839599609375
H 47.62690353393555 35.295616149902344 64.01878356933594
H 47.077693939208984 35.67882537841797 62.48668670654297
C 45.57207107543945 34.63442611694336 65.32038116455078
H 45.051273345947266 35.52138137817383 65.68717956542969
H 46.53218460083008 34.58090591430664 65.83785247802734
C 44.845890045166016 33.39379119873047 65.72388458251953
H 44.77212142944336 33.358062744140625 66.81280517578125
H 45.42940902709961 32.5200309753418 65.42638397216797
C 43.520729064941406 33.3895263671875 64.94415283203125
H 42.8514518737793 32.578121185302734 65.23768615722656
H 42.98466873168945 34.31364822387695 65.17021179199219
C 43.709102630615234 33.27790451049805 63.43047332763672
C 43.99124526977539 31.848257064819336 62.8985595703125
H 44.07107162475586 31.91548728942871 61.811553955078125
H 44.96860122680664 31.536272048950195 63.27259063720703
H 43.17160415649414 31.163209915161133 63.125213623046875
C 42.3104133605957 33.45256805419922 62.80420684814453
H 41.558387756347656 32.769527435302734 63.204681396484375
H 42.031063079833984 34.50163650512695 62.92200469970703
H 42.42563247680664 33.35140609741211 61.72303009033203
