207
Triad, Carotenoid-Porphyrin-C60
C 49.6717529296875 41.921783447265625 54.88036346435547
C 52.14501190185547 47.71620559692383 53.24995422363281
C 52.65204620361328 46.35039138793945 54.93441390991211
C 52.52369689941406 44.01049041748047 55.60662078857422
C 51.0509147644043 47.50556945800781 51.076019287109375
C 51.140235900878906 48.044681549072266 52.34530258178711
C 53.0580940246582 46.202877044677734 51.53324890136719
C 53.8357048034668 44.58275604248047 53.665061950683594
C 50.9387321472168 41.386932373046875 53.14501953125
C 52.039127349853516 46.61175537109375 50.636192321777344
C 50.975894927978516 42.12740707397461 55.224369049072266
C 48.336143493652344 45.408451080322266 50.34363555908203
C 49.72093963623047 47.27070999145508 50.67768096923828
C 48.07515335083008 43.047325134277344 50.94536209106445
C 50.195369720458984 41.966243743896484 50.95174026489258
C 48.901527404785156 42.037620544433594 51.40298843383789
C 50.38420867919922 45.26720428466797 49.51286315917969
C 53.41269302368164 44.8536376953125 51.24143981933594
C 53.717166900634766 44.0928955078125 52.36363983154297
C 52.33740234375 42.29631042480469 51.441158294677734
C 48.53947830200195 46.45936965942383 55.86785125732422
C 48.368309020996094 47.19865798950195 54.55098342895508
C 50.01468276977539 46.581180572509766 55.92598342895508
C 50.487640380859375 47.48419952392578 55.027286529541016
C 47.638240814208984 42.649173736572266 53.12575912475586
C 47.59739303588867 46.655330657958984 53.49201202392578
C 51.3345947265625 43.297176361083984 55.896427154541016
C 47.489036560058594 45.76951599121094 51.39914321899414
C 48.95463943481445 47.687564849853516 51.78404235839844
C 47.33271789550781 43.45973205566406 52.033721923828125
C 50.87492752075195 45.460933685302734 56.3031120300293
C 49.857208251953125 43.947566986083984 49.585269927978516
C 50.6954345703125 42.87821960449219 50.0089111328125
C 53.21714401245117 42.774559020996094 52.50620651245117
C 52.58647918701172 44.390716552734375 50.24573516845703
C 47.91948699951172 45.037452697753906 55.90900802612305
C 47.259552001953125 44.535274505615234 54.653987884521484
C 49.0120735168457 43.913272857666016 56.03638458251953
C 47.63481521606445 43.189273834228516 54.38172149658203
C 51.24546813964844 41.58934020996094 51.798831939697266
C 49.49113082885742 47.84310531616211 54.13589859008789
C 50.32609558105469 44.14815139770508 56.332393646240234
C 48.665321350097656 42.82744216918945 55.26810836791992
C 52.2056884765625 45.391693115234375 55.823978424072266
C 48.605892181396484 41.69104766845703 52.76088333129883
C 47.04453659057617 45.37293243408203 53.58150863647461
C 47.83009338378906 46.921905517578125 52.13352584838867
C 51.84336471557617 47.42433166503906 54.5645637512207
C 49.818607330322266 48.128143310546875 52.78258514404297
C 52.01655197143555 43.11845779418945 50.34052658081055
C 47.056087493896484 44.8021354675293 52.26359939575195
C 49.66855239868164 41.400047302246094 53.607276916503906
C 53.11601257324219 46.796417236328125 52.828182220458984
C 53.48301696777344 45.93244171142578 53.89315414428711
C 53.398841857910156 43.579524993896484 54.60337448120117
C 51.78418731689453 41.784339904785156 54.15524673461914
C 49.39272689819336 46.17411804199219 49.89947509765625
C 48.59672164916992 44.03554153442383 50.11164474487305
C 52.94586181640625 42.47529602050781 53.83470153808594
C 51.73518753051758 45.46514892578125 49.855918884277344
C 47.757354736328125 47.18816375732422 56.901912689208984
N 46.79756546020508 46.59059143066406 57.377811431884766
C 46.900108337402344 45.120670318603516 57.03106689453125
H 45.94156265258789 44.711036682128906 56.702362060546875
H 47.17010498046875 44.662715911865234 57.98606872558594
C 48.56728744506836 51.21836853027344 58.33101272583008
C 49.31503677368164 50.11083221435547 58.68607711791992
H 50.281898498535156 50.23994445800781 59.16574478149414
C 49.134315490722656 48.838993072509766 58.179359436035156
H 49.878990173339844 48.072811126708984 58.37934494018555
C 48.04297637939453 48.54204559326172 57.404781341552734
C 47.43281936645508 50.93199920654297 57.52360916137695
H 46.87993621826172 51.77656555175781 57.12038040161133
C 47.1494026184082 49.57944107055664 57.0977783203125
H 46.19702911376953 49.33658218383789 56.63347625732422
C 48.954654693603516 52.6507682800293 58.56291580200195
C 50.2719841003418 52.87874984741211 59.1824836730957
C 50.71354675292969 52.80061721801758 60.49539566040039
H 50.088951110839844 52.397762298583984 61.28584671020508
C 52.02730941772461 53.39670944213867 60.587162017822266
H 52.586082458496094 53.59677505493164 61.49544143676758
C 52.36917495727539 53.82960891723633 59.346981048583984
N 51.35384750366211 53.50545120239258 58.46488571166992
H 51.352012634277344 53.68436813354492 57.46984100341797
C 53.48871994018555 54.47013473510742 58.73032760620117
H 54.3660888671875 54.50149154663086 59.37466049194336
C 53.63825988769531 55.08927536010742 57.49705123901367
C 54.74409866333008 55.89687728881836 57.1888427734375
H 55.65364074707031 55.96876907348633 57.77603530883789
C 54.42109298706055 56.61862564086914 56.097206115722656
H 54.89921188354492 57.452266693115234 55.593544006347656
C 53.15378189086914 56.14206314086914 55.68949508666992
N 52.65032196044922 55.30971145629883 56.63083267211914
C 52.384429931640625 56.7578010559082 54.65121841430664
C 51.111663818359375 57.28402328491211 54.916786193847656
C 50.55741500854492 58.49605178833008 54.57263946533203
H 50.987274169921875 59.31668472290039 54.0078239440918
C 49.20792007446289 58.36160659790039 54.96289825439453
H 48.470306396484375 59.150020599365234 54.855411529541016
C 48.924949645996094 57.1662483215332 55.62916946411133
N 50.137413024902344 56.613956451416016 55.48966979980469
H 50.295040130615234 55.71818161010742 55.93109893798828
C 47.853515625 56.66774368286133 56.23112869262695
H 46.971588134765625 57.30636215209961 56.213993072509766
C 47.708473205566406 55.49644088745117 57.029991149902344
C 46.55984878540039 55.03525161743164 57.78739929199219
H 45.643638610839844 55.6038932800293 57.907508850097656
C 46.967044830322266 53.85918045043945 58.35488510131836
H 46.4115104675293 53.26339340209961 59.07157516479492
C 48.24723815917969 53.60712814331055 57.99723815917969
N 48.718421936035156 54.56840896606445 57.175437927246094
C 53.85054016113281 56.30537796020508 50.58590316772461
C 52.62935256958008 56.95808792114258 50.8259162902832
H 52.003719329833984 57.24399948120117 49.984249114990234
C 52.13861083984375 57.08682632446289 52.11518859863281
H 51.230892181396484 57.65639114379883 52.29743194580078
C 52.8547477722168 56.619205474853516 53.24887466430664
C 54.61812210083008 55.830196380615234 51.64558029174805
H 55.60115432739258 55.42341995239258 51.42254638671875
C 54.09674835205078 55.94692611694336 52.969844818115234
H 54.629005432128906 55.41591262817383 53.75489807128906
N 54.18949890136719 56.032535552978516 49.23868179321289
H 53.52838897705078 55.567874908447266 48.63444519042969
C 55.25131607055664 56.44487380981445 48.59929275512695
O 56.029571533203125 57.209110260009766 49.10117721557617
C 55.47181701660156 56.11256790161133 47.10624694824219
C 54.52606964111328 55.25632858276367 46.539127349853516
H 53.720279693603516 54.829280853271484 47.130653381347656
C 54.532474517822266 55.01945114135742 45.19678497314453
C 55.548648834228516 55.69096755981445 44.39875411987305
H 55.57731628417969 55.55106735229492 43.3211784362793
C 56.49140548706055 56.507755279541016 45.006141662597656
H 57.24789810180664 57.007808685302734 44.40678787231445
C 56.46507263183594 56.70315933227539 46.37165069580078
H 57.18478775024414 57.35544204711914 46.859615325927734
C 53.461387634277344 54.146610260009766 44.5738525390625
H 52.74578857421875 53.864070892333984 45.34457778930664
C 53.34469223022461 53.825862884521484 43.28981399536133
H 54.2133903503418 54.11196517944336 42.69868850708008
C 52.287967681884766 52.97175216674805 42.67978286743164
C 52.73905563354492 52.1041259765625 41.47074508666992
H 53.78615188598633 51.79904556274414 41.525211334228516
H 52.511627197265625 52.70790481567383 40.589725494384766
H 52.186134338378906 51.16890335083008 41.360740661621094
C 50.97744369506836 53.074703216552734 42.94866943359375
H 50.72855758666992 53.66653060913086 43.82828903198242
C 49.90502166748047 52.41200637817383 42.19898986816406
H 50.24005126953125 51.78202819824219 41.37630844116211
C 48.614505767822266 52.51572036743164 42.51655960083008
H 48.28644943237305 53.0801887512207 43.38815689086914
C 47.47107696533203 51.886993408203125 41.89262771606445
C 46.069732666015625 52.35630416870117 42.27718734741211
H 45.530616760253906 51.61173629760742 42.86661911010742
H 46.01784896850586 53.331233978271484 42.766361236572266
H 45.65454864501953 52.50581741333008 41.278316497802734
C 47.52688217163086 50.94745635986328 40.934669494628906
H 48.50934982299805 50.58253479003906 40.63884735107422
C 46.46963882446289 50.1822395324707 40.253395080566406
H 45.46794891357422 50.198421478271484 40.680335998535156
C 46.748294830322266 49.33739471435547 39.26899337768555
H 47.78680419921875 49.3294677734375 38.94134521484375
C 45.76116180419922 48.444602966308594 38.774906158447266
H 44.738441467285156 48.51522445678711 39.142303466796875
C 45.925228118896484 47.60626220703125 37.76911544799805
C 47.20160675048828 47.65458297729492 36.95393753051758
H 47.502166748046875 48.65202331542969 36.626468658447266
H 48.03953170776367 47.19161605834961 37.47930145263672
H 47.150367736816406 47.06514358520508 36.03611373901367
C 44.96730422973633 46.658782958984375 37.23357009887695
H 45.11587142944336 46.27530288696289 36.2252082824707
C 43.88935470581055 46.26710510253906 37.896080017089844
H 43.62902069091797 46.63611602783203 38.887027740478516
C 42.889923095703125 45.406558990478516 37.26974105834961
H 42.84551239013672 45.56576156616211 36.193359375
C 42.178016662597656 44.470455169677734 37.88501739501953
C 42.376285552978516 44.30913162231445 39.40845489501953
H 41.73030090332031 43.55085754394531 39.85587692260742
H 43.41529846191406 44.04874038696289 39.620849609375
H 42.08061981201172 45.23077392578125 39.914039611816406
C 41.30876541137695 43.51755142211914 37.20087432861328
H 40.96567153930664 43.87831497192383 36.23234176635742
C 40.909915924072266 42.307228088378906 37.612850189208984
H 41.32674026489258 41.79703903198242 38.47996520996094
C 40.07427978515625 41.24997329711914 36.90379333496094
C 39.04395294189453 41.54374694824219 36.03260040283203
C 38.42918014526367 42.90899658203125 35.750205993652344
H 37.418094635009766 42.915496826171875 36.16267395019531
H 38.99924850463867 43.6253547668457 36.3454475402832
H 38.3626594543457 43.24439239501953 34.7131233215332
C 38.3449592590332 40.522056579589844 35.20286560058594
H 38.818138122558594 40.4913444519043 34.21918487548828
H 37.33973693847656 40.905887603759766 35.01665496826172
C 38.287803649902344 39.14167022705078 35.96820831298828
H 37.82121276855469 38.35739517211914 35.36847686767578
H 37.78893280029297 39.23345947265625 36.93524932861328
C 39.80247116088867 38.886260986328125 36.17353820800781
H 39.93889617919922 37.848976135253906 36.486427307128906
H 40.25774002075195 39.04925537109375 35.19444274902344
C 40.494930267333984 39.82196044921875 37.156944274902344
C 40.300621032714844 39.29484176635742 38.622825622558594
H 40.493656158447266 40.066184997558594 39.371315002441406
H 39.23033905029297 39.10818862915039 38.73291778564453
H 40.76591110229492 38.33641052246094 38.86235809326172
C 41.9807243347168 39.549903869628906 36.98434829711914
H 42.5913200378418 40.31437301635742 37.46934509277344
H 42.285621643066406 38.58537673950195 37.39567565917969
H 42.26103591918945 39.6276969909668 35.93181228637695
