207
Triad, Carotenoid-Porphyrin-C60
C 42.34988021850586 58.596221923828125 57.576236724853516
C 36.79412841796875 55.276123046875 56.69216537475586
C 38.52467346191406 55.053138732910156 58.13308334350586
C 40.322410583496094 56.22039794921875 59.18796920776367
C 35.95108413696289 57.06288146972656 55.2595329284668
C 36.53989028930664 55.80382537841797 55.39821243286133
C 36.010169982910156 57.290740966796875 57.64237594604492
C 38.06218338012695 56.87963104248047 59.5456428527832
C 40.95936584472656 60.09687805175781 58.515995025634766
C 35.745338439941406 57.82274627685547 56.406246185302734
C 41.779048919677734 58.008705139160156 58.67183303833008
C 38.13760757446289 59.44953918457031 53.78590774536133
C 36.63184356689453 57.69190979003906 54.20907974243164
C 39.91926574707031 60.668212890625 54.78481674194336
C 39.44941329956055 61.277671813964844 57.06352615356445
C 40.38227844238281 61.040382385253906 56.04572677612305
C 36.58156967163086 59.79253387451172 55.36648941040039
C 36.515296936035156 58.330474853515625 58.48540115356445
C 37.49968338012695 58.169273376464844 59.45875930786133
C 38.5606689453125 60.20404815673828 58.860538482666016
C 41.13802719116211 54.92192077636719 54.82121658325195
C 39.927608489990234 55.406517028808594 54.01198959350586
C 40.36003494262695 54.65106964111328 56.118350982666016
C 38.96102523803711 54.55065155029297 55.87240982055664
C 41.81694030761719 59.63395690917969 55.146785736083984
C 39.92689514160156 56.631004333496094 53.377376556396484
C 41.487247467041016 56.661865234375 58.63139724731445
C 39.0321044921875 58.627197265625 53.21541213989258
C 37.51682662963867 56.83948516845703 53.61088943481445
C 40.846168518066406 59.875267028808594 54.21280288696289
C 40.79877471923828 54.98596954345703 57.33632278442383
C 37.587467193603516 60.72594451904297 55.541080474853516
C 38.074462890625 61.12688446044922 56.82780075073242
C 38.53023147583008 59.140167236328125 59.62812423706055
C 36.47011947631836 59.500221252441406 57.731815338134766
C 42.3040885925293 55.984718322753906 54.96976852416992
C 41.987449645996094 57.357154846191406 54.33670425415039
C 42.50318908691406 56.45635223388672 56.3883171081543
C 42.37227249145508 58.380859375 55.2498664855957
C 39.73809814453125 60.74921417236328 58.31865310668945
C 38.729148864746094 55.04750061035156 54.6285514831543
C 41.82328796386719 55.931114196777344 57.50270462036133
C 42.66482162475586 57.835838317871094 56.471614837646484
C 39.86951446533203 55.239158630371094 58.343448638916016
C 41.548912048339844 60.374107360839844 56.265499114990234
C 40.965152740478516 57.539649963378906 53.435123443603516
C 38.74190139770508 57.27958679199219 53.06808853149414
C 38.044944763183594 54.669227600097656 56.91288375854492
C 37.52529525756836 55.710609436035156 54.4299201965332
C 37.48529815673828 60.47681427001953 57.920047760009766
C 40.374855041503906 58.82855224609375 53.441585540771484
C 41.892356872558594 59.93938446044922 57.47073745727539
C 36.509117126464844 56.037757873535156 57.82175827026367
C 37.546409606933594 55.87781524658203 58.710994720458984
C 39.41707229614258 57.05009460449219 59.78315353393555
C 40.919681549072266 58.90308380126953 59.30463790893555
C 36.90498352050781 59.037841796875 54.21761703491211
C 38.55131912231445 60.50641632080078 54.56357192993164
C 39.696571350097656 58.42131805419922 59.78927230834961
C 36.04945373535156 59.14861297607422 56.450862884521484
C 41.86384582519531 53.69257354736328 54.2723503112793
N 43.1104736328125 53.928428649902344 54.08272933959961
C 43.520172119140625 55.376251220703125 54.32889175415039
H 43.757450103759766 55.85865783691406 53.37724685668945
H 44.357425689697266 55.324073791503906 55.02956008911133
C 40.19320297241211 50.548431396484375 51.8109016418457
C 39.936500549316406 51.835105895996094 51.56454849243164
H 39.38491439819336 52.09686279296875 50.665218353271484
C 40.354705810546875 52.890846252441406 52.42062759399414
H 40.107486724853516 53.90147399902344 52.1058464050293
C 41.17792510986328 52.61030578613281 53.49898147583008
C 41.215389251708984 50.24784851074219 52.7400016784668
H 41.65090560913086 49.251953125 52.7492790222168
C 41.68198776245117 51.26268768310547 53.555294036865234
H 42.48293685913086 51.00360107421875 54.24299240112305
C 39.58376693725586 49.386566162109375 50.94644546508789
C 38.752357482910156 49.766639709472656 49.83281326293945
C 37.47343063354492 50.28533172607422 49.80669021606445
H 36.91835021972656 50.701805114746094 50.6407585144043
C 37.07567596435547 50.450584411621094 48.4601936340332
H 36.10356140136719 50.794960021972656 48.123104095458984
C 38.02777099609375 49.88483428955078 47.70949935913086
N 39.08837890625 49.52098083496094 48.53342819213867
H 39.89569091796875 48.995872497558594 48.22579574584961
C 37.90669250488281 49.610572814941406 46.33339309692383
H 37.062599182128906 50.109580993652344 45.85965347290039
C 38.42184829711914 48.583534240722656 45.61458206176758
C 38.127464294433594 48.252296447753906 44.2757568359375
H 37.378875732421875 48.823646545410156 43.73686218261719
C 38.84069061279297 47.133705139160156 44.028987884521484
H 38.857200622558594 46.504981994628906 43.14487075805664
C 39.74238586425781 46.95555114746094 45.12992477416992
N 39.345001220703125 47.74041748046875 46.16830825805664
C 40.863094329833984 46.056190490722656 45.35078811645508
C 40.94300842285156 45.313438415527344 46.49825668334961
C 40.955570220947266 43.89164733886719 46.643680572509766
H 41.05179214477539 43.196937561035156 45.81582260131836
C 40.941497802734375 43.519432067871094 47.97671890258789
H 40.77988052368164 42.51300811767578 48.3484992980957
C 40.74741744995117 44.682044982910156 48.75539779663086
N 40.82383728027344 45.66886901855469 47.8200798034668
H 40.52153396606445 46.60509490966797 48.05293655395508
C 40.56182098388672 44.772857666015625 50.11592483520508
H 40.546512603759766 43.868011474609375 50.721675872802734
C 40.378448486328125 45.95928192138672 50.901851654052734
C 39.95564270019531 46.09971618652344 52.270748138427734
H 39.67021942138672 45.361351013183594 53.012760162353516
C 39.76279067993164 47.43579864501953 52.38242721557617
H 39.381282806396484 47.948204040527344 53.25942611694336
C 40.010108947753906 48.08665466308594 51.18844223022461
N 40.38690185546875 47.195289611816406 50.29617691040039
C 44.40398406982422 46.230499267578125 42.76468276977539
C 44.37245178222656 45.46824645996094 43.925697326660156
H 45.29435348510742 44.97710418701172 44.22644805908203
C 43.26084518432617 45.35871887207031 44.714664459228516
H 43.30427551269531 44.848114013671875 45.67329025268555
C 42.04280471801758 46.09709930419922 44.43124008178711
C 43.24951934814453 46.95100402832031 42.48661804199219
H 43.20915985107422 47.59620666503906 41.61273956298828
C 42.1054801940918 46.755157470703125 43.23883056640625
H 41.209686279296875 47.20771789550781 42.82132339477539
N 45.523582458496094 46.325592041015625 41.87747573852539
H 45.29877471923828 46.13679504394531 40.91212463378906
C 46.79934310913086 46.44324493408203 42.2957878112793
O 47.124366760253906 46.66368103027344 43.46514892578125
C 47.7850227355957 46.17333984375 41.214256286621094
C 49.060420989990234 45.67268371582031 41.410003662109375
H 49.471900939941406 45.474098205566406 42.39632034301758
C 49.936744689941406 45.359893798828125 40.390869140625
C 49.49604034423828 45.45698547363281 39.09696578979492
H 50.21263122558594 45.188682556152344 38.32490158081055
C 48.235694885253906 45.96611022949219 38.81635284423828
H 47.99473190307617 46.20018768310547 37.78256607055664
C 47.37339782714844 46.37205505371094 39.86655044555664
H 46.362064361572266 46.71996307373047 39.67228698730469
C 51.143096923828125 44.67298889160156 40.84979248046875
H 51.27397155761719 44.680809020996094 41.93087387084961
C 52.049102783203125 43.999549865722656 40.130088806152344
H 51.841827392578125 44.01606750488281 39.061126708984375
C 53.40595626831055 43.48102569580078 40.458900451660156
C 53.953086853027344 42.5582275390625 39.50126647949219
H 54.62030792236328 42.981971740722656 38.74779510498047
H 53.16242218017578 42.132781982421875 38.879730224609375
H 54.332698822021484 41.77687072753906 40.1629524230957
C 53.97319030761719 43.93156433105469 41.5955696105957
H 53.40714645385742 44.69556427001953 42.12644577026367
C 55.27499008178711 43.64491271972656 42.10235595703125
H 55.938262939453125 43.027259826660156 41.49862289428711
C 55.61267852783203 44.001670837402344 43.3349723815918
H 54.86233901977539 44.4896240234375 43.95530700683594
C 56.846397399902344 43.736351013183594 44.02165603637695
C 56.84114456176758 44.011573791503906 45.42497634887695
H 57.064178466796875 43.02894592285156 45.84587478637695
H 57.69119644165039 44.66572570800781 45.629817962646484
H 55.91156005859375 44.371551513671875 45.87080001831055
C 57.91447830200195 43.2564697265625 43.42145919799805
H 57.76609420776367 43.03801727294922 42.364967346191406
C 59.1727294921875 42.720298767089844 43.96734619140625
H 59.513614654541016 43.15618133544922 44.90528106689453
C 60.040794372558594 42.066802978515625 43.195438385009766
H 59.7409782409668 41.929962158203125 42.15750503540039
C 61.4627571105957 41.670005798339844 43.54186248779297
H 61.61067199707031 41.64674377441406 44.620521545410156
C 62.478885650634766 41.41242980957031 42.747764587402344
C 62.33571243286133 41.46742248535156 41.264530181884766
H 62.48707962036133 42.50984191894531 40.97658920288086
H 63.108070373535156 40.909454345703125 40.73106002807617
H 61.38132095336914 41.04357147216797 40.94524002075195
C 63.783897399902344 41.19196319580078 43.234500885009766
H 64.56183624267578 41.355323791503906 42.49015426635742
C 64.27505493164062 40.86814880371094 44.43032455444336
H 63.55917739868164 40.609519958496094 45.20914077758789
C 65.6805191040039 40.81053161621094 44.63572311401367
H 66.25161743164062 40.952056884765625 43.71935272216797
C 66.26118469238281 40.50070571899414 45.807674407958984
C 65.48629760742188 39.980960845947266 46.9360466003418
H 64.71388244628906 39.284786224365234 46.60261154174805
H 66.05072784423828 39.49652862548828 47.73555374145508
H 64.96929168701172 40.85840606689453 47.330081939697266
C 67.73590850830078 40.62378692626953 46.0599479675293
H 68.05916595458984 40.43775939941406 47.08309555053711
C 68.72181701660156 40.87748718261719 45.13136672973633
H 68.45602416992188 41.15013885498047 44.11110305786133
C 70.19173431396484 40.958641052246094 45.27040481567383
C 70.85950469970703 41.22736358642578 46.436397552490234
C 70.29669952392578 41.62311553955078 47.73164749145508
H 69.4587631225586 42.30754089355469 47.58370590209961
H 70.01393127441406 40.76720428466797 48.3480339050293
H 71.02409362792969 42.101226806640625 48.39101028442383
C 72.35923767089844 41.329437255859375 46.54604721069336
H 72.66495513916016 40.765037536621094 47.42948532104492
H 72.62866973876953 42.370025634765625 46.7385139465332
C 73.07044982910156 40.78447723388672 45.352779388427734
H 73.1082763671875 39.69331359863281 45.372798919677734
H 74.10920715332031 41.12113952636719 45.34285354614258
C 72.38810729980469 41.238250732421875 44.09592056274414
H 72.43724822998047 42.32892608642578 44.117706298828125
H 72.94116973876953 40.89073944091797 43.22080612182617
C 70.99166107177734 40.66371154785156 43.98256301879883
C 70.51380920410156 41.3524169921875 42.694095611572266
H 71.13951873779297 41.230873107910156 41.807430267333984
H 69.61548614501953 40.90027618408203 42.268592834472656
H 70.34669494628906 42.395660400390625 42.97010803222656
C 71.01747131347656 39.180973052978516 43.629859924316406
H 71.76797485351562 38.90156173706055 42.88747024536133
H 71.36988830566406 38.67011260986328 44.52835464477539
H 70.04890441894531 38.832984924316406 43.26483917236328
