207
Triad, Carotenoid-Porphyrin-C60
C 51.50129699707031 50.328041076660156 44.69399642944336
C 53.37442398071289 49.230445861816406 50.79405212402344
C 52.8497200012207 51.111637115478516 49.76094055175781
C 51.63177490234375 52.07517623901367 47.84210205078125
C 52.88527297973633 46.91927719116211 50.33673858642578
C 53.810848236083984 47.96333312988281 50.47066879272461
C 51.100311279296875 48.41602325439453 50.81134033203125
C 50.48320007324219 50.76365661621094 49.526248931884766
C 49.546409606933594 49.57985305786133 45.44376754760742
C 51.53664779663086 47.12042236328125 50.58808898925781
C 51.058868408203125 51.16195297241211 45.65665817260742
C 52.75784683227539 45.26871109008789 47.267391204833984
C 53.37607955932617 45.989524841308594 49.44757080078125
C 51.513919830322266 46.07497787475586 45.33061599731445
C 49.458370208740234 47.208580017089844 45.93925094604492
C 50.47010803222656 46.96100616455078 45.03178024291992
C 51.075252532958984 45.5970458984375 48.76919937133789
C 49.938541412353516 48.58332061767578 50.03500747680664
C 49.5218391418457 49.79322052001953 49.478057861328125
C 48.66801834106445 48.61124038696289 47.53360366821289
C 55.64705276489258 50.05979919433594 46.782005310058594
C 55.7639045715332 48.65089797973633 47.46015548706055
C 54.94047927856445 50.83963394165039 47.89506149291992
C 54.90682601928711 50.09743881225586 49.086692810058594
C 52.37948989868164 47.7830810546875 44.28216552734375
C 55.438716888427734 47.48165512084961 46.79655838012695
C 51.91358184814453 51.876461029052734 46.481201171875
C 53.92808151245117 45.82870864868164 46.7264289855957
C 54.574710845947266 46.5461540222168 48.92587661743164
C 52.681697845458984 46.54065704345703 44.788734436035156
C 53.847965240478516 51.62620162963867 47.57999801635742
C 50.50199890136719 45.60624694824219 47.497764587402344
C 49.47882080078125 46.531005859375 47.20651626586914
C 48.9471321105957 49.847923278808594 48.19952392578125
C 49.58855056762695 47.37937927246094 49.4483642578125
C 55.04011917114258 50.05303955078125 45.36384963989258
C 54.53360366821289 48.704647064208984 44.862022399902344
C 53.7407341003418 50.85475158691406 45.2508544921875
C 53.31692123413086 48.82612609863281 44.29680252075195
C 49.02045440673828 48.537628173828125 46.1714973449707
C 55.324153900146484 48.804351806640625 48.807838439941406
C 53.30215835571289 51.68818664550781 46.273502349853516
C 52.85616683959961 50.13276290893555 44.4576416015625
C 52.82621383666992 51.78915023803711 48.505374908447266
C 50.96942901611328 48.0084114074707 44.347782135009766
C 54.766910552978516 47.49705123901367 45.57261276245117
C 54.88847732543945 46.4459228515625 47.52988052368164
C 53.93497085571289 50.26850891113281 50.054534912109375
C 54.80527877807617 47.72599411010742 49.55645751953125
C 48.95625305175781 47.412235260009766 48.167449951171875
C 53.89871597290039 46.41802215576172 45.501102447509766
C 50.56712341308594 49.30439376831055 44.567745208740234
C 51.99562072753906 49.51527786254883 50.957489013671875
C 51.642356872558594 50.6645393371582 50.271156311035156
C 50.501808166503906 51.51813888549805 48.34818649291992
C 49.84587478637695 50.7304573059082 46.14743423461914
C 52.45109939575195 45.374759674072266 48.59735107421875
C 51.54512023925781 45.3571662902832 46.56277084350586
C 49.584407806396484 50.881038665771484 47.53268814086914
C 50.63668441772461 46.43461990356445 49.74620056152344
C 57.06098556518555 50.559959411621094 46.548274993896484
N 57.2132453918457 50.97190856933594 45.34226608276367
C 56.208553314208984 50.499446868896484 44.415714263916016
H 56.55149459838867 49.708892822265625 43.743350982666016
H 55.91685104370117 51.324066162109375 43.76030731201172
C 59.613590240478516 51.7957649230957 49.76435089111328
C 58.90682601928711 52.72024154663086 49.009281158447266
H 58.94076919555664 53.77761459350586 49.259029388427734
C 58.131229400634766 52.26461410522461 47.97804641723633
H 57.5444450378418 52.91789245605469 47.337364196777344
C 57.94291305541992 50.871761322021484 47.68464660644531
C 59.455257415771484 50.43907928466797 49.52937316894531
H 60.010868072509766 49.676448822021484 50.069061279296875
C 58.553218841552734 50.00492477416992 48.50886917114258
H 58.510684967041016 48.92445755004883 48.397701263427734
C 60.41996383666992 52.195194244384766 50.92440414428711
C 60.43388748168945 53.598915100097656 51.2689208984375
C 61.0890007019043 54.635826110839844 50.740447998046875
H 61.728580474853516 54.75360107421875 49.8719482421875
C 60.783267974853516 55.79985046386719 51.56217956542969
H 61.19137191772461 56.804359436035156 51.521766662597656
C 59.96273422241211 55.44521713256836 52.54032897949219
N 59.72304916381836 54.12331008911133 52.318023681640625
H 58.9637336730957 53.64763259887695 52.78630828857422
C 59.2703742980957 56.06024932861328 53.64983367919922
H 59.3502082824707 57.13733673095703 53.78925323486328
C 58.462955474853516 55.440460205078125 54.58125305175781
C 57.7103157043457 56.130924224853516 55.55937194824219
H 57.56248092651367 57.197139739990234 55.695587158203125
C 57.32913589477539 55.11939239501953 56.391273498535156
H 56.76704788208008 55.18027114868164 57.31732940673828
C 57.62569046020508 53.86350631713867 55.845245361328125
N 58.3045768737793 54.09121322631836 54.71955871582031
C 57.4284782409668 52.53439712524414 56.48374938964844
C 58.50246810913086 51.629661560058594 56.64384460449219
C 58.84233474731445 50.718475341796875 57.68339538574219
H 58.31000900268555 50.631317138671875 58.62480926513672
C 59.9434700012207 49.9732666015625 57.24390411376953
H 60.346309661865234 49.07248306274414 57.69505310058594
C 60.31980514526367 50.38330841064453 55.926170349121094
N 59.418148040771484 51.32999038696289 55.62804412841797
H 59.331233978271484 51.743934631347656 54.70977783203125
C 61.17350387573242 49.77446746826172 55.06837463378906
H 61.84574508666992 49.0059814453125 55.447105407714844
C 61.33964920043945 50.16209411621094 53.62425994873047
C 62.149288177490234 49.66291809082031 52.55216979980469
H 62.76913833618164 48.780982971191406 52.675437927246094
C 61.87089157104492 50.40483856201172 51.41271209716797
H 62.440250396728516 50.388912200927734 50.48923873901367
C 60.8214225769043 51.232444763183594 51.73455047607422
N 60.64895248413086 51.15902328491211 53.093955993652344
C 53.45952224731445 50.887882232666016 56.69639587402344
C 54.55582809448242 50.07887649536133 57.00853729248047
H 54.45328903198242 49.02241134643555 57.242919921875
C 55.87357711791992 50.56752395629883 56.87825012207031
H 56.6871223449707 49.859867095947266 57.01585388183594
C 56.05922317504883 51.95011520385742 56.586875915527344
C 53.64217758178711 52.289947509765625 56.479576110839844
H 52.742366790771484 52.89759826660156 56.42796325683594
C 54.940677642822266 52.802520751953125 56.3856201171875
H 55.1143684387207 53.87166213989258 56.294288635253906
N 52.18895721435547 50.28718948364258 56.86139678955078
H 51.71770477294922 50.640316009521484 57.68073272705078
C 51.61216735839844 49.44242477416992 56.03056335449219
O 52.353485107421875 48.92994689941406 55.24385070800781
C 50.12680435180664 49.107147216796875 56.159568786621094
C 49.54450988769531 48.302024841308594 55.19676971435547
H 50.12305450439453 47.85625076293945 54.391700744628906
C 48.193359375 48.04798889160156 55.224334716796875
C 47.445068359375 48.47672653198242 56.308143615722656
H 46.38828659057617 48.23691940307617 56.39349365234375
C 48.045066833496094 49.16584014892578 57.36901092529297
H 47.40279769897461 49.42963790893555 58.205352783203125
C 49.360694885253906 49.45478820800781 57.30506896972656
H 49.788368225097656 50.05109405517578 58.10700225830078
C 47.54412841796875 47.20130157470703 54.20210266113281
H 48.291263580322266 46.78471755981445 53.52818298339844
C 46.264400482177734 46.89842224121094 54.02489471435547
H 45.503604888916016 47.491416931152344 54.53034210205078
C 45.652000427246094 46.05398941040039 53.05268096923828
C 46.510929107666016 44.857059478759766 52.67272186279297
H 46.56166076660156 44.16714859008789 53.51765441894531
H 47.50434875488281 45.06855010986328 52.27165222167969
H 46.02545928955078 44.1817512512207 51.96509552001953
C 44.46921157836914 46.396690368652344 52.430137634277344
H 44.08364486694336 47.38124465942383 52.69073486328125
C 43.75960159301758 45.72685241699219 51.40229034423828
H 44.19404983520508 44.86812973022461 50.892608642578125
C 42.576900482177734 46.10857009887695 50.952396392822266
H 42.189727783203125 46.96765899658203 51.49827575683594
C 41.91910934448242 45.75419616699219 49.72748947143555
C 42.22167205810547 44.3708610534668 49.16559600830078
H 43.04632568359375 44.520484924316406 48.465576171875
H 42.49760055541992 43.67875671386719 49.96391677856445
H 41.29787063598633 44.08020782470703 48.661041259765625
C 40.962249755859375 46.520233154296875 49.19307327270508
H 40.72548294067383 47.48804473876953 49.63261795043945
C 40.17216491699219 46.2672233581543 48.0202751159668
H 40.40303039550781 45.40988540649414 47.38972473144531
C 39.05821228027344 47.00173568725586 47.747920989990234
H 38.81667709350586 47.853057861328125 48.38261413574219
C 38.15324401855469 46.69628143310547 46.66947555541992
H 38.471168518066406 46.04153823852539 45.85944366455078
C 36.982688903808594 47.3806266784668 46.39359664916992
C 36.48836898803711 48.36471176147461 47.39072799682617
H 35.48198318481445 48.70586395263672 47.13920211791992
H 36.389827728271484 47.81013107299805 48.32624816894531
H 37.17694091796875 49.20972442626953 47.456172943115234
C 36.08256912231445 47.07098388671875 45.2354736328125
H 35.094024658203125 47.49113082885742 45.41484832763672
C 36.27488327026367 46.33051300048828 44.119205474853516
H 37.19270324707031 45.78864669799805 43.895809173583984
C 35.28854751586914 46.4138298034668 43.101314544677734
H 34.687007904052734 47.32160949707031 43.09950637817383
C 34.812835693359375 45.398860931396484 42.35359191894531
C 35.47417449951172 44.06630325317383 42.318817138671875
H 35.96857833862305 43.933135986328125 41.35430145263672
H 36.26036834716797 43.9525146484375 43.068092346191406
H 34.680809020996094 43.319942474365234 42.39616775512695
C 33.67698287963867 45.548099517822266 41.46750259399414
H 32.773963928222656 46.023868560791016 41.84714889526367
C 33.57823181152344 45.10798645019531 40.19961929321289
H 34.47875213623047 44.694583892822266 39.747859954833984
C 32.44112014770508 45.08689498901367 39.197940826416016
C 31.15154266357422 44.806373596191406 39.56412124633789
C 30.646209716796875 44.58157730102539 40.999942779541016
H 30.554126739501953 45.56215286254883 41.47159957885742
H 29.770172119140625 43.939796447753906 41.11455154418945
H 31.426185607910156 44.0245246887207 41.523193359375
C 29.98926544189453 44.96978759765625 38.64002990722656
H 29.69603729248047 46.016151428222656 38.74776840209961
H 29.201396942138672 44.25325393676758 38.88150405883789
C 30.389854431152344 44.753135681152344 37.23736572265625
H 29.525833129882812 44.91065979003906 36.58842849731445
H 30.748153686523438 43.739219665527344 37.047462463378906
C 31.490589141845703 45.766841888427734 36.92213439941406
H 31.714622497558594 45.687461853027344 35.8563117980957
H 31.172008514404297 46.792724609375 37.118446350097656
C 32.77847671508789 45.39503479003906 37.73806381225586
C 33.4328498840332 44.263031005859375 37.027042388916016
H 32.926090240478516 43.30017852783203 37.119564056396484
H 33.528656005859375 44.48358154296875 35.96184539794922
H 34.428993225097656 44.03371047973633 37.41120529174805
C 33.815486907958984 46.4605827331543 37.58026123046875
H 34.7605094909668 46.39152145385742 38.123043060302734
H 34.036720275878906 46.66069412231445 36.52979278564453
H 33.35697555541992 47.334659576416016 38.047401428222656
