207
Triad, Carotenoid-Porphyrin-C60
C 44.0382194519043 33.870704650878906 51.00620651245117
C 38.826622009277344 37.66900634765625 50.693965911865234
C 40.41313934326172 37.240196228027344 49.25381088256836
C 42.121192932128906 35.63141632080078 48.645503997802734
C 37.996620178222656 36.717010498046875 52.69296646118164
C 38.626041412353516 37.724151611328125 52.10427474975586
C 37.803733825683594 35.53079605102539 50.64448928833008
C 39.81792068481445 34.97816467285156 48.74404525756836
C 42.463104248046875 32.313533782958984 50.88347244262695
C 37.58208465576172 35.58644485473633 52.00502395629883
C 43.38998031616211 34.06935119628906 49.854129791259766
C 39.98270797729492 35.01124572753906 55.21162033081055
C 38.5306510925293 36.569305419921875 54.004398345947266
C 41.6176872253418 33.32437515258789 54.69870376586914
C 41.00148391723633 31.931800842285156 52.75590896606445
C 41.94218444824219 32.434471130371094 53.623600006103516
C 38.40023422241211 34.13254165649414 53.834957122802734
C 38.1693000793457 34.217952728271484 50.3149299621582
C 39.1505241394043 33.916015625 49.38692092895508
C 40.05771255493164 32.092594146728516 50.71261215209961
C 43.24491882324219 38.52881622314453 52.195926666259766
C 42.007720947265625 38.505165100097656 53.19595718383789
C 42.43950271606445 38.46415710449219 50.8383903503418
C 41.03080368041992 38.688148498535156 51.10715103149414
C 43.5722541809082 34.029640197753906 53.8120231628418
C 41.9412956237793 37.6262321472168 54.242794036865234
C 43.301414489746094 35.33747482299805 49.2842903137207
C 40.94493865966797 35.960819244384766 55.35160446166992
C 39.552310943603516 37.50469207763672 54.151729583740234
C 42.57616424560547 34.304527282714844 54.76747512817383
C 42.7492790222168 37.486019134521484 49.87870407104492
C 39.32410430908203 33.1628303527832 54.05195236206055
C 39.71421813964844 32.28364562988281 52.9473762512207
C 40.09374237060547 32.89965057373047 49.563419342041016
C 38.18495178222656 33.45343017578125 51.4974479675293
C 44.26396560668945 37.393245697021484 52.367183685302734
C 44.005332946777344 36.40755081176758 53.5264778137207
C 44.3580322265625 36.289276123046875 51.24990463256836
C 44.20991897583008 35.09403610229492 53.16171646118164
C 41.241424560546875 31.79852294921875 51.354061126708984
C 40.80865478515625 38.77246856689453 52.47414016723633
C 43.6570930480957 36.4570198059082 50.07404708862305
C 44.42389678955078 34.99259567260742 51.81295394897461
C 41.74930191040039 36.95060729980469 49.02175521850586
C 43.174434661865234 32.90203094482422 53.12197494506836
C 42.91666030883789 36.64762878417969 54.433712005615234
C 40.72748947143555 37.2098388671875 54.81586837768555
C 40.048763275146484 38.14081954956055 50.269229888916016
C 39.61051559448242 38.23599624633789 52.949153900146484
C 39.15664291381836 32.46095275878906 51.68178176879883
C 42.25434494018555 35.600181579589844 55.11277389526367
C 43.402587890625 32.87668991088867 51.73318099975586
C 38.4290771484375 36.56373596191406 49.942813873291016
C 39.472469329833984 36.25072479248047 49.1020622253418
C 41.12593078613281 34.66596603393555 48.512203216552734
C 42.48137283325195 33.0507926940918 49.7183723449707
C 38.783016204833984 35.297340393066406 54.54411697387695
C 40.264434814453125 33.67618179321289 54.92329025268555
C 41.33839416503906 33.371524810791016 49.048954010009766
C 37.84465408325195 34.29802322387695 52.592777252197266
C 44.07402420043945 39.79011535644531 52.44852828979492
N 45.34160232543945 39.555763244628906 52.68647384643555
C 45.641754150390625 38.142093658447266 52.55732345581055
H 46.24444580078125 37.881282806396484 53.4310417175293
H 46.25586700439453 37.92404556274414 51.67984390258789
C 42.25890350341797 43.60483169555664 53.39828109741211
C 43.09609603881836 42.89253616333008 54.27726364135742
H 43.38277053833008 43.324039459228516 55.23287582397461
C 43.717857360839844 41.65861129760742 53.9555549621582
H 44.40853500366211 41.17736053466797 54.643253326416016
C 43.4801139831543 41.09064483642578 52.67690658569336
C 41.95890426635742 42.92969512939453 52.180355072021484
H 41.488040924072266 43.519317626953125 51.39792251586914
C 42.542274475097656 41.69761657714844 51.81082534790039
H 42.236122131347656 41.247398376464844 50.869998931884766
C 41.680294036865234 44.949581146240234 53.69584274291992
C 41.94888687133789 45.443023681640625 55.03072738647461
C 41.44008255004883 45.004798889160156 56.2368049621582
H 40.78902816772461 44.13855743408203 56.2913932800293
C 41.9134521484375 45.92726135253906 57.30539321899414
H 41.80034255981445 45.80146408081055 58.37712478637695
C 42.496639251708984 46.95902633666992 56.67128372192383
N 42.59646987915039 46.6019287109375 55.33525466918945
H 43.07269287109375 47.238914489746094 54.71108627319336
C 43.1376953125 48.128597259521484 57.18117904663086
H 43.41034698486328 48.283203125 58.22409439086914
C 43.58724594116211 49.21168518066406 56.46494674682617
C 44.96978759765625 49.65435791015625 56.49972915649414
H 45.773406982421875 49.31919479370117 57.147098541259766
C 45.00460433959961 50.64214324951172 55.56044387817383
H 45.89165496826172 51.138450622558594 55.180912017822266
C 43.685428619384766 50.77385330200195 54.95230484008789
N 42.85441589355469 49.86317825317383 55.50436019897461
C 43.28969955444336 51.61091995239258 53.80648422241211
C 42.22515106201172 51.23174285888672 52.975032806396484
C 41.30503845214844 52.08436584472656 52.35110855102539
H 41.29676055908203 53.15196228027344 52.544490814208984
C 40.32771682739258 51.30363464355469 51.73189163208008
H 39.41897964477539 51.63174057006836 51.238155364990234
C 40.58643341064453 49.908180236816406 51.93210983276367
N 41.666744232177734 50.017234802246094 52.71243667602539
H 42.18626022338867 49.16071319580078 52.848812103271484
C 39.88905715942383 48.8025016784668 51.51667404174805
H 39.087913513183594 49.02643966674805 50.81386184692383
C 40.03413391113281 47.408348083496094 51.86500930786133
C 39.2777099609375 46.26663589477539 51.50516128540039
H 38.38410568237305 46.22172164916992 50.891422271728516
C 39.83577346801758 45.23360824584961 52.209903717041016
H 39.46297073364258 44.22413635253906 52.348506927490234
C 40.89414978027344 45.6788330078125 52.86015701293945
N 41.01298522949219 46.97610855102539 52.640926361083984
C 45.4211540222168 55.31334686279297 53.074581146240234
C 44.60807418823242 54.79339599609375 52.12179183959961
H 44.533905029296875 55.27326583862305 51.14926528930664
C 43.945892333984375 53.58431625366211 52.31949996948242
H 43.34029006958008 53.247562408447266 51.481990814208984
C 44.04140090942383 52.850250244140625 53.51381301879883
C 45.587528228759766 54.55973815917969 54.25175857543945
H 46.156951904296875 55.06560516357422 55.02727127075195
C 44.81985855102539 53.441162109375 54.513736724853516
H 44.7376823425293 53.056304931640625 55.52700424194336
N 46.07354736328125 56.507713317871094 52.85245895385742
H 45.42898941040039 57.282928466796875 52.811588287353516
C 47.378116607666016 56.72333526611328 52.60531234741211
O 48.12070083618164 55.7943115234375 52.505672454833984
C 47.727474212646484 58.152225494384766 52.30521774291992
C 48.710750579833984 58.388771057128906 51.29732894897461
H 49.29843521118164 57.519554138183594 51.01332473754883
C 48.954254150390625 59.6217041015625 50.85091781616211
C 48.24362564086914 60.72928237915039 51.333309173583984
H 48.23714065551758 61.74905776977539 50.957027435302734
C 47.28374099731445 60.55247116088867 52.39217758178711
H 46.627174377441406 61.35612106323242 52.71565628051758
C 47.08432388305664 59.2357063293457 52.82322311401367
H 46.20085144042969 59.0178108215332 53.4178352355957
C 50.01887130737305 59.91564178466797 49.81040573120117
H 50.553688049316406 59.01026916503906 49.527217864990234
C 50.38749313354492 61.11724090576172 49.256954193115234
H 49.83504104614258 62.025508880615234 49.49311447143555
C 51.3370475769043 61.36516571044922 48.194393157958984
C 51.38941955566406 62.77790451049805 47.711307525634766
H 50.90827178955078 62.82217025756836 46.73202133178711
H 52.37981414794922 63.23777770996094 47.72127914428711
H 50.891788482666016 63.37455368041992 48.47866439819336
C 52.138648986816406 60.39361572265625 47.66521072387695
H 52.04656219482422 59.43055725097656 48.1651725769043
C 53.13463592529297 60.476837158203125 46.56643295288086
H 53.065711975097656 61.288578033447266 45.8437614440918
C 54.07258605957031 59.51515579223633 46.33786392211914
H 54.19013977050781 58.67353057861328 47.01887130737305
C 55.214271545410156 59.741458892822266 45.45817184448242
C 55.64403533935547 61.108619689941406 45.1158332824707
H 55.55675506591797 61.36542892456055 44.05805587768555
H 55.03657531738281 61.82000732421875 45.679195404052734
H 56.63124084472656 61.282745361328125 45.54892349243164
C 55.95714569091797 58.732940673828125 44.9372444152832
H 55.57007598876953 57.725059509277344 45.07963943481445
C 57.01061248779297 58.79106903076172 43.95988082885742
H 57.31349182128906 59.812442779541016 43.73409652709961
C 57.67747497558594 57.74923324584961 43.3912239074707
H 57.44402313232422 56.72650909423828 43.68356704711914
C 58.86320495605469 57.90351104736328 42.59389877319336
H 59.11555480957031 58.95219039916992 42.44387435913086
C 59.629844665527344 57.01736068725586 41.90610122680664
C 59.274574279785156 55.58533477783203 42.11296463012695
H 59.156837463378906 55.28112030029297 43.15510177612305
H 58.47216033935547 55.257789611816406 41.44865036010742
H 60.08723449707031 54.96484375 41.72952651977539
C 60.63421630859375 57.3262825012207 40.970157623291016
H 61.090736389160156 56.44263458251953 40.52667999267578
C 60.95152282714844 58.499210357666016 40.553497314453125
H 60.51318359375 59.463199615478516 40.807472229003906
C 62.085670471191406 58.5330810546875 39.536659240722656
H 62.600730895996094 57.5738525390625 39.513912200927734
C 62.50382995605469 59.50846862792969 38.731964111328125
C 61.917015075683594 60.86113357543945 38.82076644897461
H 60.87939453125 60.74140167236328 38.50222396850586
H 61.85609436035156 60.97235870361328 39.90538024902344
H 62.4989013671875 61.7032585144043 38.44038009643555
C 63.64806365966797 59.390140533447266 37.77766799926758
H 63.741493225097656 60.26166534423828 37.13142013549805
C 64.4703369140625 58.38286209106445 37.64237594604492
H 64.2938232421875 57.410186767578125 38.099185943603516
C 65.68353271484375 58.3250617980957 36.81784439086914
C 66.73656463623047 59.16856002807617 37.013301849365234
C 66.78069305419922 60.3404541015625 37.964202880859375
H 66.99976348876953 60.003944396972656 38.97969436645508
H 67.48726654052734 61.14773941040039 37.76045608520508
H 65.78728485107422 60.790550231933594 37.909263610839844
C 68.03861999511719 59.05295181274414 36.26289749145508
H 68.86486053466797 59.249488830566406 36.94932174682617
H 68.06566619873047 59.927215576171875 35.60913848876953
C 68.16846466064453 57.77652359008789 35.41801452636719
H 68.54846954345703 56.925785064697266 35.987491607666016
H 68.92159271240234 57.95869445800781 34.6485481262207
C 66.7951431274414 57.40898132324219 34.831092834472656
H 66.46707153320312 58.23234939575195 34.19321060180664
H 66.85836029052734 56.64390563964844 34.05447769165039
C 65.85310363769531 57.09843444824219 35.9019775390625
C 64.56775665283203 56.76850128173828 35.13664245605469
H 64.29084014892578 57.63215637207031 34.52845764160156
H 64.73491668701172 55.9772834777832 34.4028205871582
H 63.69611358642578 56.603240966796875 35.77334976196289
C 66.19525146484375 55.77091598510742 36.60595703125
H 65.24959564208984 55.341407775878906 36.94316864013672
H 66.62572479248047 55.03159713745117 35.927303314208984
H 66.92269134521484 55.95212936401367 37.39997482299805
