207
Triad, Carotenoid-Porphyrin-C60
C 42.261207580566406 44.959407806396484 49.59280014038086
C 45.420284271240234 50.46194076538086 49.06433868408203
C 44.12968826293945 49.77647018432617 50.8291015625
C 43.377071380615234 47.712860107421875 51.58893585205078
C 46.576908111572266 49.62841796875 47.12401580810547
C 45.61114501953125 50.50914764404297 47.6544075012207
C 47.26876449584961 48.957584381103516 49.412967681884766
C 45.75754165649414 48.07270812988281 51.613521575927734
C 44.321224212646484 44.22523498535156 49.94930648803711
C 47.39124298095703 48.88523864746094 48.01860046386719
C 42.75542449951172 45.57875061035156 50.78571319580078
C 45.55561065673828 46.885169982910156 45.15103530883789
C 46.15943908691406 49.053707122802734 45.919708251953125
C 44.67290496826172 44.8265495300293 46.01472854614258
C 45.83875274658203 44.16559982299805 48.035316467285156
C 44.74079513549805 44.00382614135742 47.139244079589844
C 47.39755630493164 46.98890686035156 46.46628952026367
C 47.514888763427734 47.67819595336914 49.95417022705078
C 46.74720001220703 47.27716827392578 51.05641174316406
C 46.58235549926758 45.09684371948242 49.88911437988281
C 41.16758728027344 49.22621154785156 47.91697692871094
C 42.248477935791016 49.51922607421875 46.86525344848633
C 41.85649108886719 49.68721389770508 49.17441177368164
C 43.006534576416016 50.40298080444336 48.8018684387207
C 42.61948013305664 44.863590240478516 46.85736083984375
C 42.56340789794922 48.683650970458984 45.80928421020508
C 42.451087951660156 46.870269775390625 51.03002166748047
C 44.262935638427734 47.40646743774414 44.96012496948242
C 44.870731353759766 49.54619598388672 45.74789810180664
C 43.374088287353516 45.32682800292969 45.81649398803711
C 41.9410514831543 48.89198303222656 50.287357330322266
C 46.89780044555664 45.6461067199707 46.476688385009766
C 46.917659759521484 44.94165802001953 47.67215347290039
C 46.31820297241211 45.93351364135742 51.00141525268555
C 47.867576599121094 46.837528228759766 48.83046340942383
C 40.620182037353516 47.72017288208008 47.861541748046875
C 41.205589294433594 46.8282470703125 46.77666091918945
C 40.990631103515625 46.93989562988281 49.127437591552734
C 41.52717208862305 45.58539962768555 47.37583923339844
C 45.624107360839844 44.23659896850586 49.407196044921875
C 43.2369270324707 50.314178466796875 47.39933776855469
C 41.54876708984375 47.558040618896484 50.27300262451172
C 41.42204284667969 45.667930603027344 48.7260627746582
C 43.02652359008789 48.999900817871094 51.16714859008789
C 43.428897857666016 44.0595817565918 47.68109130859375
C 42.07427215576172 47.37709045410156 45.78466796875
C 43.88077926635742 48.71490478515625 45.251712799072266
C 44.140113830566406 50.464839935302734 49.64863967895508
C 44.51035690307617 50.330711364746094 46.85531997680664
C 47.30512237548828 45.542999267578125 48.82079315185547
C 43.131893157958984 46.6456298828125 45.29914474487305
C 43.28938674926758 44.18437957763672 49.06755828857422
C 46.25731658935547 49.76903533935547 49.970001220703125
C 45.47254943847656 49.34596633911133 51.01927947998047
C 44.65987777709961 47.24425506591797 51.903411865234375
C 44.02824020385742 45.093997955322266 51.008785247802734
C 46.50745391845703 47.73065185546875 45.60013198852539
C 45.732112884521484 45.61211013793945 45.676780700683594
C 45.0225830078125 45.914222717285156 51.57551193237305
C 47.871009826660156 47.59760665893555 47.691932678222656
C 39.896751403808594 49.992942810058594 47.80283737182617
N 38.82822799682617 49.387237548828125 47.46287155151367
C 39.083499908447266 47.907100677490234 47.52428436279297
H 38.8010368347168 47.41353988647461 46.59086608886719
H 38.51237869262695 47.45390701293945 48.338584899902344
C 40.27385330200195 54.31338119506836 47.76829528808594
C 39.84193801879883 53.59234619140625 48.89322280883789
H 39.90018844604492 54.158531188964844 49.81930160522461
C 39.60426712036133 52.231903076171875 48.94175720214844
H 39.41679000854492 51.697975158691406 49.869842529296875
C 39.86008834838867 51.45650100708008 47.86276626586914
C 40.32594299316406 53.53742218017578 46.59064483642578
H 40.80252456665039 53.95166015625 45.70585632324219
C 40.171539306640625 52.163326263427734 46.66582107543945
H 40.53876495361328 51.52998352050781 45.86233139038086
C 40.644718170166016 55.77547836303711 47.85661697387695
C 40.43998718261719 56.48857879638672 49.157432556152344
C 39.35249710083008 56.46910095214844 50.03209686279297
H 38.35305404663086 56.09868240356445 49.82928466796875
C 39.74976348876953 57.32762145996094 51.102046966552734
H 39.22734069824219 57.57347869873047 52.02066421508789
C 41.016265869140625 57.72671890258789 50.912418365478516
N 41.46240234375 57.140926361083984 49.78706359863281
H 42.37583923339844 57.24641799926758 49.36679458618164
C 41.820716857910156 58.54290008544922 51.74431228637695
H 41.29983901977539 59.076263427734375 52.53813171386719
C 43.08908462524414 58.9781608581543 51.547061920166016
C 43.833412170410156 59.83558654785156 52.44453430175781
H 43.48670959472656 60.32878875732422 53.34662628173828
C 45.02035903930664 60.01080322265625 51.78400802612305
H 45.896507263183594 60.58984375 52.05659103393555
C 44.95826721191406 59.44133758544922 50.38789749145508
N 43.751102447509766 58.85882568359375 50.323577880859375
C 45.85190963745117 59.558990478515625 49.20610809326172
C 45.430870056152344 59.785064697265625 47.90701675415039
C 45.64329528808594 60.859580993652344 47.015403747558594
H 46.18571472167969 61.75804138183594 47.290672302246094
C 44.9851188659668 60.548248291015625 45.7830696105957
H 44.91084289550781 61.126747131347656 44.868167877197266
C 44.2076530456543 59.32066345214844 46.007652282714844
N 44.68564987182617 58.943302154541016 47.174560546875
H 44.3297233581543 58.09761428833008 47.599117279052734
C 43.3262825012207 58.64171600341797 45.15571975708008
H 43.207923889160156 59.05967712402344 44.157108306884766
C 42.28763198852539 57.71503829956055 45.49832534790039
C 41.19099426269531 57.267276763916016 44.770912170410156
H 41.105281829833984 57.50043869018555 43.7147331237793
C 40.447322845458984 56.45315933227539 45.61500549316406
H 39.56182861328125 55.88134002685547 45.357818603515625
C 41.06069564819336 56.49361038208008 46.82362747192383
N 42.14377212524414 57.22538757324219 46.74184036254883
C 50.11341857910156 58.91786575317383 49.883567810058594
C 49.641510009765625 59.193145751953125 48.60585403442383
H 50.31576919555664 59.29510498046875 47.75936508178711
C 48.25832748413086 59.37425231933594 48.30931854248047
H 47.90612030029297 59.49304962158203 47.287845611572266
C 47.329124450683594 59.24858856201172 49.38578414916992
C 49.200035095214844 58.72786331176758 50.880638122558594
H 49.69489669799805 58.49562072753906 51.82018280029297
C 47.826419830322266 58.9114875793457 50.638919830322266
H 47.150657653808594 58.628944396972656 51.44209671020508
N 51.48686218261719 58.643089294433594 50.04304885864258
H 51.672550201416016 57.85273361206055 50.64216613769531
C 52.52293395996094 59.119537353515625 49.3437614440918
O 52.43896484375 60.12397766113281 48.652225494384766
C 53.87725830078125 58.436519622802734 49.3985710144043
C 53.91147232055664 57.05038070678711 49.567012786865234
H 53.040443420410156 56.41373825073242 49.69951629638672
C 55.12019348144531 56.37192916870117 49.55311584472656
C 56.276390075683594 57.045406341552734 49.26929473876953
H 57.15332794189453 56.41489028930664 49.146827697753906
C 56.29841613769531 58.40422058105469 49.20945358276367
H 57.24330139160156 58.92524719238281 49.07794189453125
C 55.1117057800293 59.10057067871094 49.17919158935547
H 55.0652961730957 60.15064239501953 48.902095794677734
C 55.09897994995117 54.91371154785156 49.8575553894043
H 54.12287521362305 54.464202880859375 50.03387451171875
C 56.09419631958008 53.994232177734375 49.82693862915039
H 57.1353645324707 54.19799041748047 49.58122634887695
C 55.972434997558594 52.58567428588867 50.09880828857422
C 54.80534744262695 52.119503021240234 50.86939239501953
H 54.5578498840332 52.85795211791992 51.63483428955078
H 54.79249572753906 51.11776351928711 51.303932189941406
H 53.90284729003906 52.181026458740234 50.25769805908203
C 56.85361099243164 51.6038818359375 49.76227951049805
H 57.738555908203125 51.96414566040039 49.239776611328125
C 56.776283264160156 50.11970138549805 49.952598571777344
H 56.08799362182617 49.79429244995117 50.73124313354492
C 57.6185188293457 49.24800109863281 49.38617706298828
H 58.36149215698242 49.68856430053711 48.72298812866211
C 57.76679992675781 47.78221130371094 49.45193862915039
C 59.058589935302734 47.34402847290039 48.74828338623047
H 59.899505615234375 47.03266525268555 49.37147903442383
H 58.85345458984375 46.46944808959961 48.12739944458008
H 59.487648010253906 48.1330680847168 48.127159118652344
C 56.92018127441406 46.903358459472656 49.933082580566406
H 55.99882125854492 47.353111267089844 50.300148010253906
C 57.00077819824219 45.463356018066406 49.82267379760742
H 57.88905715942383 45.11211395263672 49.299686431884766
C 56.11102294921875 44.6168327331543 50.34560012817383
H 55.35519027709961 45.03425598144531 51.00922393798828
C 56.177406311035156 43.131317138671875 50.279727935791016
H 57.0133056640625 42.814552307128906 49.657752990722656
C 55.357112884521484 42.1579475402832 50.721412658691406
C 54.054744720458984 42.500335693359375 51.34073257446289
H 53.39885711669922 42.79178237915039 50.51772689819336
H 53.5777473449707 41.667625427246094 51.86181640625
H 54.1573371887207 43.29084396362305 52.087074279785156
C 55.42058563232422 40.75975036621094 50.35203170776367
H 55.10140609741211 40.065670013427734 51.128108978271484
C 55.73637008666992 40.21204376220703 49.19940948486328
H 56.03768539428711 40.8104133605957 48.34087371826172
C 55.814674377441406 38.79265594482422 48.96656799316406
H 55.92787170410156 38.16573715209961 49.84979248046875
C 55.79182815551758 38.238807678222656 47.70140838623047
C 55.66014099121094 39.080787658691406 46.4777717590332
H 55.58226776123047 38.42665100097656 45.606842041015625
H 54.79594421386719 39.74471664428711 46.547245025634766
H 56.58802795410156 39.65228271484375 46.40793228149414
C 55.780521392822266 36.74855041503906 47.38899230957031
H 55.56326675415039 36.393672943115234 46.38262176513672
C 55.940338134765625 35.72332000732422 48.25702667236328
H 56.04927444458008 36.01808547973633 49.29970169067383
C 55.94306182861328 34.320091247558594 47.913909912109375
C 56.94995880126953 33.77096939086914 47.142333984375
C 58.05373001098633 34.563636779785156 46.539283752441406
H 58.09991455078125 34.52762985229492 45.44886016845703
H 58.01082229614258 35.586585998535156 46.91902542114258
H 59.01182174682617 34.18878936767578 46.905364990234375
C 57.17708206176758 32.235992431640625 46.876739501953125
H 57.948951721191406 31.86994171142578 47.55695343017578
H 57.69845962524414 32.09859848022461 45.92713165283203
C 55.93290328979492 31.415184020996094 47.04252624511719
H 56.021392822265625 30.333175659179688 46.92466735839844
H 55.29590606689453 31.740249633789062 46.21727752685547
C 55.49659729003906 31.823978424072266 48.52542495727539
H 54.724037170410156 31.132522583007812 48.86821365356445
H 56.346458435058594 31.678699493408203 49.19557189941406
C 54.96934509277344 33.329017639160156 48.67886734008789
C 53.49601364135742 33.38888931274414 48.292877197265625
H 53.400901794433594 32.982887268066406 47.283626556396484
H 52.84135818481445 32.797019958496094 48.93598937988281
H 53.17900466918945 34.43089294433594 48.21418762207031
C 54.82529067993164 33.697235107421875 50.202369689941406
H 54.39060974121094 32.788082122802734 50.623046875
H 55.78026580810547 33.95563507080078 50.6646614074707
H 54.11837387084961 34.493587493896484 50.444358825683594
