207
Triad, Carotenoid-Porphyrin-C60
C 54.10568618774414 60.19835662841797 50.539764404296875
C 56.197811126708984 57.53013610839844 56.078125
C 56.97603225708008 57.354637145996094 53.98591613769531
C 56.95338821411133 58.58623504638672 51.88525390625
C 54.61506271362305 58.960418701171875 57.20445251464844
C 54.949214935302734 57.683746337890625 56.7647705078125
C 56.762882232666016 59.82970428466797 56.42289733886719
C 57.81686782836914 59.61774444580078 53.8468017578125
C 54.97298049926758 61.99500274658203 51.58074188232422
C 55.552547454833984 59.97588348388672 57.11968231201172
C 55.45066452026367 60.01183319091797 50.593284606933594
C 51.77524185180664 60.57939910888672 55.876556396484375
C 53.30582809448242 59.1715087890625 57.17302703857422
C 51.646846771240234 61.85230255126953 53.861419677734375
C 53.794498443603516 62.86297607421875 53.496429443359375
C 52.62160110473633 62.362098693847656 52.98301696777344
C 53.6556282043457 61.50468444824219 56.77655792236328
C 56.95133590698242 60.97467041015625 55.709999084472656
C 57.53616714477539 60.84626007080078 54.43634033203125
C 56.037540435791016 62.619544982910156 53.71959686279297
C 53.16701126098633 56.06047058105469 52.812530517578125
C 52.69919204711914 56.47021484375 54.159210205078125
C 54.65750503540039 56.10749053955078 52.988548278808594
C 54.92915725708008 56.258460998535156 54.396453857421875
C 51.7353630065918 60.527374267578125 51.96351623535156
C 51.67853927612305 57.390281677246094 54.388946533203125
C 55.91440200805664 58.75279235839844 50.93597412109375
C 51.23904037475586 59.42157745361328 55.326377868652344
C 52.77286148071289 58.02748107910156 56.517799377441406
C 51.19063949584961 60.66370391845703 53.200538635253906
C 55.567264556884766 56.79795837402344 52.171722412109375
C 53.195621490478516 62.29032897949219 55.73729705810547
C 54.126102447509766 62.87810516357422 54.861328125
C 57.05839920043945 61.686187744140625 53.42157745361328
C 55.9495964050293 61.89086151123047 56.05870819091797
C 52.582828521728516 56.922821044921875 51.63134002685547
C 51.6848258972168 58.08843231201172 52.062347412109375
C 53.632694244384766 57.78363037109375 50.93418884277344
C 52.05891799926758 59.28718566894531 51.4200439453125
C 54.978145599365234 62.737632751464844 52.762855529785156
C 53.74824905395508 56.382354736328125 55.105552673339844
C 55.02530288696289 57.63584899902344 51.15608215332031
C 53.16840744018555 59.08392333984375 50.72135925292969
C 56.69816207885742 57.426353454589844 52.61286926269531
C 52.57875442504883 61.659393310546875 51.76127624511719
C 51.13100051879883 58.20508575439453 53.37236022949219
C 51.76924514770508 58.18391418457031 55.597938537597656
C 56.150333404541016 56.82035827636719 54.86382293701172
C 53.7638053894043 57.147003173828125 56.290740966796875
C 55.46126174926758 62.74121856689453 54.99720764160156
C 50.9561882019043 59.47081756591797 53.94554901123047
C 53.7818489074707 61.41905975341797 51.09088134765625
C 57.06144332885742 58.604400634765625 55.834632873535156
C 57.5490837097168 58.45237731933594 54.57862091064453
C 57.521785736083984 59.701210021972656 52.49828338623047
C 56.019351959228516 61.142974853515625 51.29145812988281
C 52.76576614379883 60.442527770996094 56.897056579589844
C 52.0190544128418 61.73650360107422 55.22526550292969
C 57.06990432739258 60.96613311767578 52.211830139160156
C 55.060359954833984 61.27344512939453 56.91389465332031
C 52.646297454833984 54.691795349121094 52.39270782470703
N 51.892391204833984 54.62886047363281 51.33824157714844
C 51.87814712524414 55.949462890625 50.72108459472656
H 50.80838394165039 56.161720275878906 50.64894104003906
H 52.249454498291016 55.853668212890625 49.69755554199219
C 53.20283126831055 51.150978088378906 54.834877014160156
C 52.12496566772461 52.07953643798828 55.12840270996094
H 51.40750503540039 51.87312316894531 55.918479919433594
C 51.89240646362305 53.23907470703125 54.30244445800781
H 51.110347747802734 53.97523498535156 54.46984100341797
C 52.774356842041016 53.49225616455078 53.265159606933594
C 53.96195602416992 51.417205810546875 53.73048400878906
H 54.743282318115234 50.737091064453125 53.401031494140625
C 53.80192947387695 52.605552673339844 52.95777893066406
H 54.35849380493164 52.670875549316406 52.0263671875
C 53.5545768737793 50.02044677734375 55.75
C 52.82907485961914 49.8851318359375 56.99998474121094
C 52.603153228759766 50.713356018066406 58.07855987548828
H 52.97446823120117 51.73216247558594 58.04137420654297
C 51.925662994384766 50.004066467285156 59.093971252441406
H 51.62521743774414 50.46453094482422 60.02935791015625
C 51.779727935791016 48.74822235107422 58.644432067871094
N 52.28873062133789 48.69244384765625 57.404563903808594
H 52.31197738647461 47.894775390625 56.783843994140625
C 51.2645149230957 47.62207794189453 59.32685852050781
H 50.65866470336914 47.879486083984375 60.19438934326172
C 51.40604019165039 46.291038513183594 58.979820251464844
C 50.848995208740234 45.21650695800781 59.71770477294922
H 50.3478889465332 45.25892639160156 60.679115295410156
C 51.17607498168945 44.10871887207031 59.038902282714844
H 51.077999114990234 43.09149932861328 59.40342712402344
C 51.973690032958984 44.47882080078125 57.91185760498047
N 52.14559555053711 45.81120300292969 57.89216613769531
C 52.481014251708984 43.513450622558594 56.88340759277344
C 53.723812103271484 43.69096374511719 56.314292907714844
C 54.923343658447266 42.866790771484375 56.26959228515625
H 54.91379928588867 41.84832000732422 56.64356994628906
C 55.98646926879883 43.555091857910156 55.80384826660156
H 57.01958084106445 43.230430603027344 55.8709716796875
C 55.55366897583008 44.906150817871094 55.56450653076172
N 54.22563552856445 44.84342956542969 55.88965606689453
H 53.73720932006836 45.72724914550781 55.938873291015625
C 56.2713508605957 45.971153259277344 55.30595397949219
H 57.340335845947266 45.816123962402344 55.167503356933594
C 55.86105728149414 47.404266357421875 55.220458984375
C 56.703060150146484 48.55670928955078 55.13123321533203
H 57.77592086791992 48.47345733642578 54.99244689941406
C 55.914249420166016 49.632667541503906 55.307334899902344
H 56.25165939331055 50.661468505859375 55.37776184082031
C 54.62617111206055 49.13121032714844 55.3990478515625
N 54.596317291259766 47.79731750488281 55.350738525390625
C 49.65616226196289 40.776344299316406 54.86571502685547
C 51.03261184692383 40.80735778808594 54.557655334472656
H 51.3468132019043 40.08406066894531 53.809532165527344
C 51.90750503540039 41.752197265625 55.16844177246094
H 52.98307418823242 41.69389343261719 55.022438049316406
C 51.486209869384766 42.58483123779297 56.24684143066406
C 49.2191276550293 41.77533721923828 55.751487731933594
H 48.15432357788086 41.865447998046875 55.95057678222656
C 50.091426849365234 42.57634735107422 56.48020935058594
H 49.6594352722168 43.260276794433594 57.20629119873047
N 48.72909164428711 39.94257354736328 54.22393798828125
H 47.96498489379883 39.59346008300781 54.782806396484375
C 48.7439079284668 39.563873291015625 52.94792175292969
O 49.55019760131836 39.929931640625 52.05598449707031
C 47.5793571472168 38.64251708984375 52.532814025878906
C 47.01644515991211 38.93958282470703 51.308860778808594
H 47.333011627197266 39.79242706298828 50.71388244628906
C 45.870418548583984 38.275184631347656 50.87138366699219
C 45.32896041870117 37.24922180175781 51.70088195800781
H 44.54729080200195 36.58045959472656 51.34972381591797
C 46.04487228393555 36.813331604003906 52.85542297363281
H 45.65105056762695 36.01642608642578 53.481048583984375
C 47.03806686401367 37.616424560546875 53.37419891357422
H 47.542781829833984 37.39277648925781 54.310577392578125
C 45.25056076049805 38.539466857910156 49.57389831542969
H 45.81232833862305 39.345726013183594 49.10454559326172
C 44.18577194213867 38.01506042480469 48.85029602050781
H 43.64506912231445 37.18267822265625 49.29828643798828
C 43.64226150512695 38.396766662597656 47.60652160644531
C 42.44536209106445 37.67707061767578 47.14812469482422
H 41.78266525268555 37.49638366699219 47.997032165527344
H 42.7101936340332 36.710357666015625 46.71478271484375
H 41.971134185791016 38.18827819824219 46.30775451660156
C 44.109012603759766 39.41912841796875 46.918846130371094
H 45.07736587524414 39.83679962158203 47.1904296875
C 43.681148529052734 39.86604309082031 45.5863037109375
H 43.26984786987305 39.10858154296875 44.92071533203125
C 44.0208625793457 41.08131408691406 45.11467742919922
H 44.53231430053711 41.77143096923828 45.78406524658203
C 43.70673751831055 41.6512451171875 43.795928955078125
C 44.3521614074707 42.97271728515625 43.61637878417969
H 45.38405227661133 43.041107177734375 43.967071533203125
H 44.35158157348633 43.256752014160156 42.56196212768555
H 43.7819709777832 43.770652770996094 44.09663391113281
C 42.93351364135742 41.097740173339844 42.90811538696289
H 42.50454330444336 40.127586364746094 43.154518127441406
C 42.434879302978516 41.62657165527344 41.6566276550293
H 42.795162200927734 42.62220764160156 41.40202713012695
C 41.802371978759766 40.95030212402344 40.62263107299805
H 41.495235443115234 39.934173583984375 40.86567687988281
C 41.49739456176758 41.48363494873047 39.262786865234375
H 42.16776657104492 42.21693420410156 38.81692123413086
C 40.473941802978516 41.04432678222656 38.403831481933594
C 39.48276901245117 40.080970764160156 38.92864990234375
H 39.30927658081055 40.31455993652344 39.98116683959961
H 38.50302505493164 40.14452362060547 38.45060729980469
H 39.73781967163086 39.019378662109375 38.949440002441406
C 40.18098831176758 41.599571228027344 37.1622428894043
H 39.19016647338867 41.40330505371094 36.755210876464844
C 40.96553421020508 42.257240295410156 36.26128387451172
H 42.032894134521484 42.34516906738281 36.458614349365234
C 40.41280746459961 42.624656677246094 34.932918548583984
H 39.41337203979492 42.2425537109375 34.730323791503906
C 40.9918098449707 43.30915832519531 33.92081832885742
C 42.30374526977539 43.768280029296875 34.14533615112305
H 42.836971282958984 42.89894104003906 34.535675048828125
H 42.79671096801758 44.21752166748047 33.28067398071289
H 42.30149459838867 44.53828430175781 34.91965103149414
C 40.3619499206543 43.857666015625 32.75147247314453
H 41.098575592041016 44.25518035888672 32.054847717285156
C 39.0567512512207 43.980491638183594 32.37583923339844
H 38.29501724243164 43.61640930175781 33.063682556152344
C 38.57625961303711 44.793785095214844 31.28428840637207
C 39.136966705322266 44.74571990966797 30.02986717224121
C 40.256221771240234 43.82423400878906 29.509477615356445
H 40.53123092651367 43.174407958984375 30.34288215637207
H 39.84540939331055 43.136146545410156 28.767702102661133
H 41.14987564086914 44.386756896972656 29.23121452331543
C 38.639774322509766 45.70536804199219 28.9352970123291
H 38.83037185668945 45.21746063232422 27.97713279724121
H 39.231204986572266 46.62321472167969 28.950376510620117
C 37.15261459350586 46.09309387207031 29.143110275268555
H 36.65683364868164 45.12242889404297 29.21002769470215
H 36.68295669555664 46.74005889892578 28.399255752563477
C 37.112369537353516 46.74253845214844 30.533742904663086
H 37.8773307800293 47.5216064453125 30.514970779418945
H 36.15492630004883 47.26304626464844 30.603315353393555
C 37.34206771850586 45.69597625732422 31.561376571655273
C 37.49800491333008 46.35047149658203 32.9202880859375
H 37.70637130737305 45.61505889892578 33.70016860961914
H 38.380008697509766 46.993980407714844 32.941043853759766
H 36.62794876098633 46.953765869140625 33.187686920166016
C 36.0327033996582 44.929847717285156 31.770097732543945
H 35.92837142944336 44.23230743408203 30.936426162719727
H 35.88810348510742 44.31237030029297 32.6590690612793
H 35.160526275634766 45.58489227294922 31.71817970275879
