207
Triad, Carotenoid-Porphyrin-C60
C 64.42343139648438 55.9656867980957 43.07567596435547
C 60.896183013916016 51.933101654052734 39.185951232910156
C 61.0285530090332 54.2518196105957 39.274192810058594
C 62.50101089477539 56.01224136352539 40.04231643676758
C 62.25458908081055 50.11656951904297 39.934425354003906
C 61.0797004699707 50.807395935058594 40.01288986206055
C 63.14445114135742 51.718772888183594 38.29534912109375
C 63.23271560668945 54.44108581542969 38.43912887573242
C 66.00840759277344 55.237159729003906 41.633384704589844
C 63.28483963012695 50.5611572265625 39.04169464111328
C 64.10774230957031 56.37824249267578 41.77474594116211
C 64.2598648071289 50.08211135864258 42.918731689453125
C 62.59243392944336 49.62811279296875 41.20886993408203
C 65.61917877197266 51.85255813598633 43.65922164916992
C 66.68579864501953 52.971458435058594 41.86149215698242
C 66.28211212158203 52.94415283203125 43.184051513671875
C 64.92733001708984 50.074676513671875 40.7772102355957
C 64.38545989990234 52.36916732788086 38.29041290283203
C 64.36868286132812 53.74707794189453 38.329959869384766
C 66.33502960205078 53.708030700683594 39.72113037109375
C 60.08198165893555 53.852378845214844 43.35233688354492
C 60.33561325073242 52.3505859375 43.21416091918945
C 60.1157341003418 54.25530242919922 41.89487075805664
C 59.94473648071289 53.09537887573242 41.08995819091797
C 64.72591400146484 53.622779846191406 44.6209602355957
C 61.362911224365234 51.63751983642578 43.88039016723633
C 62.8233528137207 56.37655258178711 41.33872985839844
C 63.25858688354492 50.409366607666016 43.82797622680664
C 61.565677642822266 50.04938507080078 42.127655029296875
C 64.63822937011719 52.27333450317383 44.583011627197266
C 60.86140060424805 55.36994171142578 41.38410568237305
C 65.88027954101562 50.78744888305664 41.53689956665039
C 66.54934692382812 51.8756103515625 41.049800872802734
C 65.33213806152344 54.42302322387695 39.0516357421875
C 65.27052307128906 51.68437957763672 39.03721237182617
C 61.1616096496582 54.54273986816406 44.262332916259766
C 62.30320358276367 53.65547180175781 44.8776969909668
C 62.04368209838867 55.60825729370117 43.5411491394043
C 63.512264251708984 54.30517578125 44.7215461730957
C 66.609375 54.104881286621094 41.05282211303711
C 60.09189224243164 51.991310119628906 41.8829231262207
C 61.7809944152832 56.04218292236328 42.205360412597656
C 63.38338088989258 55.49409484863281 43.920841217041016
C 61.28201675415039 55.352928161621094 40.09035873413086
C 65.74354553222656 54.08405685424805 43.781673431396484
C 62.23106002807617 52.23963928222656 44.7548713684082
C 61.95267105102539 50.449058532714844 43.41067886352539
C 60.4235725402832 53.11320495605469 39.77348709106445
C 60.66874313354492 50.78251266479492 41.38218688964844
C 66.2867660522461 52.32072448730469 39.70532989501953
C 63.4380989074707 51.52495193481445 44.638797760009766
C 65.57701873779297 55.22394561767578 42.9901008605957
C 61.90861892700195 52.40987014770508 38.40516662597656
C 62.01205825805664 53.778175354003906 38.425724029541016
C 63.464412689208984 55.57563400268555 39.18021011352539
C 65.13452911376953 56.028175354003906 40.86791229248047
C 63.94337844848633 49.7213020324707 41.62397384643555
C 65.43972778320312 50.739444732666016 42.81415939331055
C 64.75574493408203 55.60363006591797 39.587886810302734
C 64.57939147949219 50.55370330810547 39.491458892822266
C 58.809932708740234 54.20661544799805 43.958499908447266
N 58.88459396362305 55.037593841552734 44.9412956237793
C 60.258052825927734 55.3060302734375 45.320682525634766
H 60.3890266418457 54.81122589111328 46.286434173583984
H 60.4826545715332 56.374813079833984 45.3643684387207
C 54.75766372680664 53.34403610229492 42.62455749511719
C 55.61812973022461 52.321632385253906 43.02907180786133
H 55.29061508178711 51.28522491455078 43.01639938354492
C 56.90634536743164 52.64283752441406 43.49179458618164
H 57.58498764038086 51.84334945678711 43.77786636352539
C 57.44105911254883 53.920345306396484 43.505001068115234
C 55.24759292602539 54.69366455078125 42.79459762573242
H 54.584842681884766 55.505760192871094 42.50678253173828
C 56.59965896606445 54.930782318115234 43.12519836425781
H 56.984134674072266 55.94377517700195 43.21234130859375
C 53.34297561645508 53.16464614868164 42.05546188354492
C 52.88869094848633 51.78044891357422 42.04719161987305
C 53.27371597290039 50.643394470214844 41.452762603759766
H 54.230098724365234 50.509132385253906 40.95827102661133
C 52.31769943237305 49.60936737060547 41.69605255126953
H 52.32291030883789 48.65287399291992 41.18388366699219
C 51.33537673950195 50.10255813598633 42.53067398071289
N 51.752933502197266 51.41072082519531 42.76338195800781
H 51.21017074584961 52.08348846435547 43.2877082824707
C 50.08805465698242 49.53875732421875 42.937835693359375
H 49.85708999633789 48.49923324584961 42.709842681884766
C 48.93032455444336 50.23458480834961 43.151485443115234
C 47.682193756103516 49.575599670410156 43.029808044433594
H 47.48104476928711 48.5371208190918 42.78831100463867
C 46.7398796081543 50.58359909057617 43.19747543334961
H 45.6549186706543 50.5893669128418 43.18953323364258
C 47.43623733520508 51.80809783935547 43.48069381713867
N 48.78425216674805 51.58891677856445 43.28498458862305
C 46.89065933227539 53.05634689331055 43.98324203491211
C 47.220882415771484 54.24076843261719 43.398807525634766
C 46.43569564819336 55.34305953979492 42.9809684753418
H 45.357601165771484 55.42639923095703 43.070335388183594
C 47.23029708862305 56.2529182434082 42.35942840576172
H 46.967227935791016 57.23118591308594 41.9708366394043
C 48.5364875793457 55.80840301513672 42.21471405029297
N 48.45293045043945 54.57416915893555 42.905616760253906
H 49.25239944458008 53.979042053222656 43.0753173828125
C 49.597530364990234 56.26942443847656 41.494911193847656
H 49.47331619262695 57.24674987792969 41.03087615966797
C 50.95656967163086 55.66083526611328 41.39101791381836
C 52.05617904663086 56.0086555480957 40.51650619506836
H 52.02853012084961 56.712120056152344 39.69091796875
C 53.076534271240234 55.063453674316406 40.71434020996094
H 53.97938919067383 54.914794921875 40.131263732910156
C 52.59724807739258 54.264060974121094 41.66221618652344
N 51.339168548583984 54.572509765625 42.03680419921875
C 44.138614654541016 52.93909454345703 47.4150505065918
C 44.5176887512207 54.180908203125 46.86848831176758
H 44.20673751831055 55.14357376098633 47.266178131103516
C 45.42524337768555 54.15913009643555 45.77541732788086
H 45.63069534301758 55.14616775512695 45.369083404541016
C 45.89960861206055 53.006317138671875 45.1699104309082
C 44.643489837646484 51.76531982421875 46.88606643676758
H 44.267887115478516 50.860801696777344 47.357608795166016
C 45.47786331176758 51.78364181518555 45.75436782836914
H 45.94559097290039 50.8526496887207 45.44443130493164
N 43.38809585571289 52.85411071777344 48.56391525268555
H 43.70454788208008 52.07637405395508 49.1234245300293
C 42.732364654541016 53.840187072753906 49.2151985168457
O 42.32365798950195 54.87759780883789 48.621341705322266
C 42.40452194213867 53.63156509399414 50.671260833740234
C 42.38083267211914 52.43960189819336 51.259212493896484
H 42.532047271728516 51.589237213134766 50.59922409057617
C 41.975765228271484 52.38113021850586 52.5788688659668
C 41.71963882446289 53.499149322509766 53.3760871887207
H 41.5521354675293 53.40913391113281 54.44632339477539
C 41.85757064819336 54.71304702758789 52.76295852661133
H 41.723934173583984 55.620513916015625 53.34624099731445
C 42.225399017333984 54.84387969970703 51.42582321166992
H 42.300052642822266 55.864349365234375 51.058895111083984
C 41.94883346557617 50.98308181762695 53.11899948120117
H 42.345516204833984 50.24040222167969 52.428348541259766
C 41.490657806396484 50.602787017822266 54.34762954711914
H 41.15903091430664 51.3526496887207 55.064327239990234
C 41.31796646118164 49.22690963745117 54.72907638549805
C 42.12668228149414 48.26063919067383 54.02543258666992
H 42.25624465942383 47.42319869995117 54.714176177978516
H 43.09750747680664 48.59721755981445 53.65572738647461
H 41.54994583129883 47.91051483154297 53.16679763793945
C 40.38554000854492 48.89739227294922 55.633785247802734
H 39.93877029418945 49.739471435546875 56.16029739379883
C 40.012386322021484 47.55979537963867 56.10451889038086
H 40.5104866027832 46.677886962890625 55.704463958740234
C 39.11378860473633 47.46575927734375 57.12112808227539
H 38.70883560180664 48.366458892822266 57.58012008666992
C 38.58082962036133 46.2748908996582 57.78450393676758
C 38.03835678100586 46.57068634033203 59.1231575012207
H 36.95382308959961 46.68326950073242 59.06325149536133
H 38.18575668334961 45.8670539855957 59.945125579833984
H 38.49061965942383 47.47431564331055 59.53713607788086
C 38.50845718383789 45.05135726928711 57.21657943725586
H 38.79538345336914 45.03785705566406 56.166141510009766
C 37.85543441772461 43.8525390625 57.69498062133789
H 37.356327056884766 43.935752868652344 58.65928268432617
C 37.73062515258789 42.71350860595703 56.95320510864258
H 38.31867599487305 42.64166259765625 56.03944778442383
C 37.00442123413086 41.48281478881836 57.32258987426758
H 36.33400344848633 41.617637634277344 58.170108795166016
C 37.092350006103516 40.2745246887207 56.7531623840332
C 38.0003547668457 39.98873519897461 55.65559768676758
H 37.471736907958984 39.90091323852539 54.70412063598633
H 38.68561935424805 40.80046081542969 55.40266799926758
H 38.48628616333008 39.0445556640625 55.91025924682617
C 36.33308792114258 39.18228530883789 57.175235748291016
H 35.969051361083984 38.510597229003906 56.39919662475586
C 35.90525436401367 38.94951248168945 58.42500686645508
H 36.30856704711914 39.590641021728516 59.20743942260742
C 34.81081008911133 37.997188568115234 58.67729568481445
H 34.603511810302734 37.33435821533203 57.83848190307617
C 34.0606803894043 37.9478874206543 59.71458053588867
C 34.36050033569336 38.71767044067383 60.96934127807617
H 33.49411392211914 38.864051818847656 61.617733001708984
H 35.07625961303711 38.195213317871094 61.60744857788086
H 34.80813217163086 39.699432373046875 60.80129623413086
C 33.27712631225586 36.750213623046875 59.905818939208984
H 33.037296295166016 36.138423919677734 59.037418365478516
C 32.89335250854492 36.22175216674805 61.118778228759766
H 33.27244186401367 36.77075958251953 61.9794807434082
C 32.1191291809082 35.03081130981445 61.35151290893555
C 30.980648040771484 34.72422790527344 60.64231491088867
C 30.362957000732422 35.47944641113281 59.53274154663086
H 30.836631774902344 36.45950698852539 59.61978530883789
H 30.497982025146484 34.90808868408203 58.61198806762695
H 29.316871643066406 35.70729446411133 59.747806549072266
C 30.192848205566406 33.45991134643555 60.883480072021484
H 29.822189331054688 32.99180221557617 59.969173431396484
H 29.363525390625 33.77582550048828 61.5197868347168
C 30.98398208618164 32.3889274597168 61.65993118286133
H 31.79050064086914 31.860244750976562 61.14760971069336
H 30.266033172607422 31.629905700683594 61.97758102416992
C 31.577014923095703 33.143333435058594 62.89433670043945
H 30.86017608642578 33.697208404541016 63.50411605834961
H 32.07315444946289 32.534767150878906 63.653255462646484
C 32.721431732177734 34.125 62.43234634399414
C 33.25388717651367 34.79173278808594 63.671566009521484
H 34.25905227661133 35.20616149902344 63.56985855102539
H 32.66343307495117 35.63973617553711 64.02474212646484
H 33.436222076416016 33.99510955810547 64.3958740234375
C 33.8427848815918 33.38239669799805 61.8005256652832
H 33.51499557495117 33.08615493774414 60.80189895629883
H 34.71552658081055 34.02257537841797 61.655765533447266
H 34.31461715698242 32.59170150756836 62.387577056884766
