207
Triad, Carotenoid-Porphyrin-C60
C 55.19761276245117 40.59891128540039 61.27321243286133
C 53.278202056884766 41.20588302612305 55.0625114440918
C 52.555484771728516 42.2193489074707 56.93110656738281
C 53.253334045410156 42.74979019165039 59.16333770751953
C 55.29666519165039 39.99473571777344 54.36368942260742
C 53.97372055053711 39.99940872192383 54.64936065673828
C 55.42554473876953 42.31887435913086 55.00553512573242
C 54.45942687988281 43.6634407043457 57.25505065917969
C 56.91303634643555 41.86268615722656 60.50724411010742
C 56.07087326049805 41.180625915527344 54.54982376098633
C 54.72960662841797 41.86166763305664 60.879554748535156
C 57.21752166748047 37.90274429321289 56.55998611450195
C 55.7529182434082 38.71249771118164 54.783348083496094
C 57.85981369018555 38.44179916381836 58.69292449951172
C 58.290794372558594 40.76643753051758 58.97175979614258
C 58.067325592041016 39.535037994384766 59.51389694213867
C 57.775535583496094 39.88252258300781 55.54805374145508
C 56.28144454956055 42.962345123291016 55.92333984375
C 55.810890197753906 43.710723876953125 57.0565071105957
C 57.63797378540039 42.77915954589844 58.37489318847656
C 51.99095153808594 38.28618621826172 58.531036376953125
C 52.83906173706055 37.84670639038086 57.34015655517578
C 51.75618362426758 39.734249114990234 58.043190002441406
C 51.96418762207031 39.842445373535156 56.64190673828125
C 56.37338638305664 38.34251403808594 60.3155632019043
C 54.01066589355469 37.125343322753906 57.450626373291016
C 53.48788070678711 41.944522857666016 60.27418899536133
C 56.147300720214844 37.1097412109375 57.01934814453125
C 54.688602447509766 37.94432067871094 55.256168365478516
C 56.8745002746582 37.63763427734375 59.22991180419922
C 52.04533004760742 40.857723236083984 58.82542419433594
C 58.40721893310547 39.78239059448242 56.75528335571289
C 58.540489196777344 40.88629150390625 57.58963394165039
C 56.485984802246094 43.548912048339844 58.28158950805664
C 57.43570327758789 42.252864837646484 56.00394821166992
C 52.73680877685547 38.20270919799805 59.91378402709961
C 54.14277648925781 37.639404296875 59.788475036621094
C 53.178646087646484 39.53313064575195 60.581424713134766
C 55.0495719909668 38.298553466796875 60.61775207519531
C 57.78562545776367 41.87778091430664 59.41352844238281
C 52.57096481323242 38.654640197753906 56.15406036376953
C 52.71028518676758 40.77891540527344 60.093379974365234
C 54.44353103637695 39.4818229675293 61.071224212646484
C 52.427040100097656 42.041011810302734 58.29006576538086
C 57.13658905029297 39.446414947509766 60.5192985534668
C 54.649085998535156 36.96171569824219 58.68119812011719
C 54.91816329956055 37.17567825317383 56.44029998779297
C 52.363460540771484 41.10231399536133 56.13522720336914
C 53.57750701904297 38.74655532836914 55.15813064575195
C 58.11231994628906 42.17100524902344 57.18987274169922
C 55.99588394165039 36.92120361328125 58.397335052490234
C 56.56519317626953 40.593589782714844 61.0263786315918
C 54.05572509765625 42.350067138671875 55.27864456176758
C 53.586395263671875 43.01961898803711 56.44261169433594
C 54.269954681396484 43.501190185546875 58.608341217041016
C 55.72970962524414 42.66907501220703 60.36965560913086
C 56.995792388916016 38.682498931884766 55.394554138183594
C 58.04840850830078 38.57513427734375 57.36445236206055
C 55.55293655395508 43.47810363769531 59.22171401977539
C 57.338985443115234 41.11359405517578 55.147212982177734
C 50.68974304199219 37.5416259765625 58.761131286621094
N 50.65199279785156 36.96595001220703 59.86968231201172
C 51.82365798950195 37.24185562133789 60.7342529296875
H 52.34793472290039 36.356109619140625 61.10200119018555
H 51.32398986816406 37.72268295288086 61.57911682128906
C 47.644126892089844 37.21709060668945 55.828216552734375
C 47.39775085449219 37.78829574584961 57.07786560058594
H 46.518741607666016 38.35611343383789 57.37196350097656
C 48.403690338134766 37.85391616821289 58.02186584472656
H 48.24725341796875 38.406341552734375 58.944862365722656
C 49.68717956542969 37.35651779174805 57.76543426513672
C 48.94425582885742 36.775203704833984 55.542545318603516
H 49.233497619628906 36.3730583190918 54.57497024536133
C 49.99848937988281 36.81081008911133 56.47280502319336
H 50.9798583984375 36.40786361694336 56.23591995239258
C 46.6272087097168 37.147483825683594 54.7180061340332
C 45.349327087402344 37.792022705078125 54.98610305786133
C 44.455223083496094 37.68812942504883 56.03138732910156
H 44.631187438964844 37.178466796875 56.97293472290039
C 43.393394470214844 38.54618453979492 55.731056213378906
H 42.52454376220703 38.618003845214844 56.37693786621094
C 43.58975601196289 39.07451248168945 54.47330856323242
N 44.742435455322266 38.54941940307617 54.015235900878906
H 45.090579986572266 38.88478469848633 53.127288818359375
C 42.795257568359375 39.99381637573242 53.690792083740234
H 41.862693786621094 40.414608001708984 54.06386184692383
C 43.0435791015625 40.61153793334961 52.521568298339844
C 42.95547103881836 42.0042839050293 52.35727310180664
H 42.52622985839844 42.64777374267578 53.118125915527344
C 43.51626205444336 42.29133224487305 51.15131378173828
H 43.61400604248047 43.308345794677734 50.786136627197266
C 44.033103942871094 41.02704620361328 50.62622833251953
N 43.75704574584961 40.03368377685547 51.519718170166016
C 44.77193069458008 40.88349914550781 49.34190368652344
C 45.614139556884766 39.80572509765625 49.07063293457031
C 45.875980377197266 39.19683074951172 47.855255126953125
H 45.384544372558594 39.46314239501953 46.92530822753906
C 46.6214485168457 38.032989501953125 48.00516128540039
H 46.898834228515625 37.35747146606445 47.202693939208984
C 46.795433044433594 37.7725715637207 49.38739776611328
N 46.31354904174805 38.927093505859375 49.9201774597168
H 46.45801544189453 39.109039306640625 50.90412139892578
C 47.204288482666016 36.60539627075195 49.95360565185547
H 47.49583435058594 35.79948043823242 49.28171920776367
C 47.2206916809082 36.276206970214844 51.40286636352539
C 47.49949645996094 35.09498596191406 52.10380554199219
H 47.75829315185547 34.13631820678711 51.666534423828125
C 47.36537170410156 35.40201950073242 53.394378662109375
H 47.33893966674805 34.712684631347656 54.231842041015625
C 47.058834075927734 36.68244552612305 53.515846252441406
N 46.9938850402832 37.22165298461914 52.34709930419922
C 43.90361404418945 43.82025146484375 46.11180114746094
C 44.965694427490234 42.925025939941406 46.04527282714844
H 45.64799499511719 42.96183395385742 45.199886322021484
C 45.22994613647461 41.968719482421875 47.07434844970703
H 46.12763977050781 41.365577697753906 46.965057373046875
C 44.403934478759766 41.83919906616211 48.220428466796875
C 43.027931213378906 43.63472366333008 47.20416259765625
H 42.17885971069336 44.313167572021484 47.22325134277344
C 43.27635192871094 42.71860122680664 48.211029052734375
H 42.45783233642578 42.56715393066406 48.910072326660156
N 43.729713439941406 44.88125991821289 45.20166015625
H 43.16501235961914 44.69591522216797 44.38628387451172
C 44.28410339355469 46.083866119384766 45.257415771484375
O 45.09718704223633 46.329471588134766 46.10506057739258
C 43.86824417114258 47.08719253540039 44.15917205810547
C 44.55667495727539 48.33351516723633 44.207576751708984
H 45.267333984375 48.50292205810547 45.01245880126953
C 44.204933166503906 49.344520568847656 43.33015441894531
C 43.1353645324707 49.16932678222656 42.48194122314453
H 42.78740692138672 50.03584671020508 41.92548370361328
C 42.43014144897461 47.94731903076172 42.39570236206055
H 41.625038146972656 47.791221618652344 41.6822509765625
C 42.837120056152344 46.907474517822266 43.21446228027344
H 42.24995803833008 45.99281311035156 43.20016860961914
C 45.015010833740234 50.51350784301758 43.286556243896484
H 45.844722747802734 50.52647018432617 43.99177551269531
C 44.92726516723633 51.613651275634766 42.48634719848633
H 44.14100646972656 51.684688568115234 41.73623275756836
C 45.81665802001953 52.797462463378906 42.43465042114258
C 47.06113052368164 52.755985260009766 43.27696990966797
H 46.88526153564453 53.31624221801758 44.19764709472656
H 47.73043441772461 53.29544448852539 42.60356521606445
H 47.378814697265625 51.73801040649414 43.51206588745117
C 45.373435974121094 53.95389938354492 41.78566360473633
H 44.42503356933594 53.8648796081543 41.25790023803711
C 46.06086349487305 55.28567886352539 41.788856506347656
H 46.85873794555664 55.3797721862793 42.52402114868164
C 45.63316345214844 56.253292083740234 40.96602249145508
H 44.75824737548828 56.07856369018555 40.34159469604492
C 46.17726135253906 57.61470031738281 40.96918487548828
C 47.45059585571289 57.87020492553711 41.66425704956055
H 47.35095977783203 57.72555923461914 42.742034912109375
H 48.20551300048828 57.15019607543945 41.341522216796875
H 47.8436279296875 58.88735580444336 41.605995178222656
C 45.61994552612305 58.55418014526367 40.20348358154297
H 44.70330047607422 58.29999542236328 39.67332077026367
C 45.98405838012695 59.98543930053711 39.98397445678711
H 46.9709587097168 60.306636810302734 40.31380081176758
C 45.206634521484375 60.9058723449707 39.450523376464844
H 44.19987487792969 60.6096076965332 39.159698486328125
C 45.56824493408203 62.27862548828125 39.14165496826172
H 46.62379837036133 62.52244567871094 39.25245666503906
C 44.872047424316406 63.34954833984375 38.86092758178711
C 43.3825569152832 63.293251037597656 38.7537956237793
H 43.023284912109375 64.26019287109375 39.112144470214844
H 43.043724060058594 63.31920623779297 37.71601867675781
H 42.824005126953125 62.50221252441406 39.25851058959961
C 45.475128173828125 64.65061950683594 38.69035720825195
H 46.4671630859375 64.7287368774414 39.13272476196289
C 44.916866302490234 65.67385864257812 37.99832534790039
H 43.974281311035156 65.56031036376953 37.46488571166992
C 45.408119201660156 67.01244354248047 37.77970886230469
H 46.17411422729492 67.33963012695312 38.481224060058594
C 45.15864562988281 67.80332946777344 36.745819091796875
C 44.210575103759766 67.36156463623047 35.641883850097656
H 44.349754333496094 68.0553207397461 34.810142517089844
H 44.45576858520508 66.34337615966797 35.33262634277344
H 43.17780685424805 67.42314147949219 35.991249084472656
C 45.65959930419922 69.12748718261719 36.42769241333008
H 45.1496696472168 69.75586700439453 35.698974609375
C 46.88121795654297 69.62968444824219 36.88347625732422
H 47.42646026611328 69.01799774169922 37.600738525390625
C 47.49250030517578 70.87297821044922 36.4208984375
C 47.38180160522461 71.32197570800781 35.13542556762695
C 46.84636688232422 70.59664154052734 33.920509338378906
H 47.66242980957031 70.33243560791016 33.244712829589844
H 46.42890930175781 69.61758422851562 34.16474533081055
H 46.169532775878906 71.23572540283203 33.349609375
C 47.99066925048828 72.61250305175781 34.68400192260742
H 47.27773666381836 73.43865203857422 34.724849700927734
H 48.198123931884766 72.6105728149414 33.61188888549805
C 49.2630615234375 72.9280014038086 35.516380310058594
H 49.72410583496094 73.88288116455078 35.25539779663086
H 50.08990478515625 72.21678924560547 35.4618034362793
C 48.63259506225586 73.0117416381836 36.989837646484375
H 49.421958923339844 73.32443237304688 37.67656326293945
H 47.80275344848633 73.71530151367188 37.08382034301758
C 48.23100662231445 71.6367416381836 37.477298736572266
C 49.51729202270508 70.8880615234375 37.8717041015625
H 49.30929946899414 69.86506652832031 38.19215393066406
H 50.23917770385742 70.95047760009766 37.054725646972656
H 50.02254867553711 71.42861938476562 38.6748046875
C 47.49867630004883 71.83268737792969 38.82929229736328
H 47.00485610961914 70.9591064453125 39.25994110107422
H 48.164608001708984 72.26211547851562 39.580684661865234
H 46.73067092895508 72.60470581054688 38.747982025146484
