207
Triad, Carotenoid-Porphyrin-C60
C 32.89625930786133 55.99385452270508 45.50954818725586
C 37.49849319458008 51.49418258666992 45.4776611328125
C 36.36852264404297 52.32257843017578 47.31236267089844
C 34.29280090332031 53.47500991821289 47.67860794067383
C 37.32099914550781 51.265953063964844 43.06056213378906
C 37.94144058227539 51.77986526489258 44.223934173583984
C 35.71553421020508 50.2166862487793 44.486968994140625
C 34.25959777832031 51.22782897949219 46.71205520629883
C 31.737173080444336 54.235260009765625 44.66746139526367
C 36.17335891723633 50.403541564941406 43.203330993652344
C 32.89034652709961 55.0048942565918 46.49903869628906
C 35.92940139770508 53.70465087890625 40.947601318359375
C 37.31140899658203 52.29426193237305 42.170963287353516
C 33.83864974975586 54.9102897644043 41.33614730834961
C 32.14739227294922 53.45771789550781 42.39393997192383
C 32.680206298828125 54.729515075683594 42.09626007080078
C 35.04899215698242 51.63780212402344 41.39742660522461
C 34.32136917114258 50.30636215209961 44.48408508300781
C 33.619110107421875 50.76701354980469 45.58448791503906
C 32.0605583190918 51.860103607177734 44.047943115234375
C 37.74140548706055 56.04106903076172 45.841190338134766
C 38.157100677490234 55.30636978149414 44.57882308959961
C 37.45481491088867 54.905208587646484 46.817134857177734
C 38.035152435302734 53.7383918762207 46.27176284790039
C 33.85224914550781 56.48434829711914 42.92264938354492
C 37.71347427368164 55.595420837402344 43.27073287963867
C 33.99143600463867 54.791622161865234 47.290435791015625
C 36.56727981567383 54.83428192138672 41.4516487121582
C 38.04317855834961 53.32369613647461 42.622772216796875
C 34.51776885986328 56.01167678833008 41.81212615966797
C 36.23921585083008 54.750091552734375 47.486045837402344
C 33.94009780883789 52.49946212768555 41.2331428527832
C 32.77422332763672 52.32101058959961 41.92156982421875
C 32.500091552734375 51.5747184753418 45.32173156738281
C 33.894004821777344 50.574031829833984 43.215545654296875
C 36.47024917602539 57.017608642578125 45.5629768371582
C 35.927364349365234 57.103302001953125 44.07694625854492
C 35.14990234375 56.60708999633789 46.199954986572266
C 34.52530288696289 56.98347091674805 44.02531051635742
C 31.668901443481445 53.20948791503906 43.70223617553711
C 38.479984283447266 53.987247467041016 44.9509162902832
C 35.15133285522461 55.58435821533203 47.175323486328125
C 34.086849212646484 56.729698181152344 45.3133544921875
C 35.69157028198242 53.44552993774414 47.73038864135742
C 32.68366622924805 55.72559356689453 43.10482406616211
C 36.59450912475586 56.452308654785156 43.03401184082031
C 37.63411331176758 54.64402389526367 42.271663665771484
C 37.50185775756836 52.46075439453125 46.52106857299805
C 38.43887710571289 53.025794982910156 43.89148712158203
C 32.78021240234375 51.33583450317383 42.925724029541016
C 35.93289566040039 55.92814254760742 41.94392395019531
C 32.214412689208984 55.50772476196289 44.39232635498047
C 36.34463882446289 50.76964569091797 45.63897705078125
C 35.67280578613281 51.226158142089844 46.76582336425781
C 33.57512283325195 52.38298034667969 47.17226791381836
C 32.09620666503906 53.94779968261719 46.0157356262207
C 36.20309829711914 52.40950012207031 41.321834564208984
C 34.51631164550781 53.769378662109375 40.89890670776367
C 32.535072326660156 52.64268493652344 46.30392074584961
C 34.987770080566406 50.68882369995117 42.4070930480957
C 38.76004409790039 56.99848175048828 46.40035629272461
N 38.2990608215332 58.187232971191406 46.45688247680664
C 36.93840408325195 58.3916015625 46.11973571777344
H 36.848331451416016 59.166465759277344 45.35415267944336
H 36.37051010131836 58.69367599487305 47.00341796875
C 42.888004302978516 55.791412353515625 47.220062255859375
C 42.56936264038086 56.90064239501953 46.38569641113281
H 43.37069320678711 57.47111129760742 45.923095703125
C 41.23031234741211 57.1596794128418 46.0843505859375
H 40.959964752197266 58.02096939086914 45.478824615478516
C 40.154476165771484 56.49485397338867 46.65151596069336
C 41.802005767822266 55.24374771118164 47.90585708618164
H 41.97455978393555 54.59457015991211 48.76047134399414
C 40.443241119384766 55.55323028564453 47.595367431640625
H 39.67042922973633 54.99183654785156 48.11418151855469
C 44.33854293823242 55.41759490966797 47.6415901184082
C 45.41926193237305 56.309593200683594 47.09864044189453
C 45.86495590209961 56.623470306396484 45.80449676513672
H 45.498905181884766 56.11449432373047 44.9189567565918
C 46.89071273803711 57.61602020263672 45.900230407714844
H 47.440364837646484 58.0390510559082 45.06587219238281
C 47.120357513427734 57.8380126953125 47.19820785522461
N 46.1329460144043 57.170623779296875 47.89408493041992
H 45.855648040771484 57.33246994018555 48.852745056152344
C 48.048458099365234 58.70646286010742 47.854774475097656
H 48.63046646118164 59.2327995300293 47.09968566894531
C 48.73125076293945 58.5034065246582 49.05242156982422
C 49.5127067565918 59.539485931396484 49.6092414855957
H 49.56853103637695 60.553226470947266 49.226566314697266
C 50.07553482055664 58.92234420776367 50.71173858642578
H 50.74025344848633 59.387939453125 51.43187713623047
C 49.6112174987793 57.581573486328125 50.80338668823242
N 48.728092193603516 57.35405349731445 49.7880973815918
C 49.87424850463867 56.63158416748047 51.87869644165039
C 48.83864974975586 55.789798736572266 52.350181579589844
C 48.6064338684082 55.215370178222656 53.667274475097656
H 49.209102630615234 55.435306549072266 54.54228591918945
C 47.59602737426758 54.29180145263672 53.60514450073242
H 47.167110443115234 53.62620544433594 54.346920013427734
C 46.96995162963867 54.39677810668945 52.345890045166016
N 47.67570877075195 55.36295700073242 51.69449996948242
H 47.5075569152832 55.73225784301758 50.76850509643555
C 45.9046745300293 53.7018928527832 51.90829086303711
H 45.48479080200195 53.061920166015625 52.682918548583984
C 45.234615325927734 53.76420974731445 50.597415924072266
C 44.207889556884766 52.924495697021484 50.06380844116211
H 43.80825424194336 52.070045471191406 50.59992980957031
C 43.91678237915039 53.33170700073242 48.808509826660156
H 43.159664154052734 52.97669219970703 48.11716079711914
C 44.56612777709961 54.527584075927734 48.71601867675781
N 45.41535568237305 54.6998176574707 49.72205352783203
C 53.96455764770508 55.23228073120117 52.69770812988281
C 52.85396194458008 54.5345344543457 53.198951721191406
H 52.876895904541016 53.53017807006836 53.61406326293945
C 51.55561447143555 54.9179573059082 52.93198013305664
H 50.75886154174805 54.363563537597656 53.421268463134766
C 51.31936264038086 56.10444259643555 52.16990661621094
C 53.7045783996582 56.36427688598633 51.89584732055664
H 54.552371978759766 56.914085388183594 51.49519348144531
C 52.39310073852539 56.746864318847656 51.61854934692383
H 52.207218170166016 57.53554153442383 50.893978118896484
N 55.279232025146484 54.65040969848633 52.75395965576172
H 55.285770416259766 53.653507232666016 52.59831237792969
C 56.50376510620117 55.2266731262207 53.0172119140625
O 56.62411117553711 56.37031173706055 53.41976547241211
C 57.823970794677734 54.45579528808594 52.6790771484375
C 57.90609359741211 53.096988677978516 52.67549514770508
H 57.008914947509766 52.56583786010742 52.98293685913086
C 59.05045700073242 52.39111328125 52.36848831176758
C 60.18741226196289 53.16260528564453 51.92776107788086
H 61.07089614868164 52.68190002441406 51.51551055908203
C 60.1546745300293 54.57200622558594 51.91048812866211
H 60.99862289428711 55.113792419433594 51.49121856689453
C 58.94032669067383 55.213077545166016 52.26579666137695
H 58.94045639038086 56.30007553100586 52.268619537353516
C 59.00381851196289 50.90253829956055 52.31097412109375
H 58.04995346069336 50.43010711669922 52.54093933105469
C 59.93960189819336 50.04700469970703 51.82762145996094
H 60.90040969848633 50.46392059326172 51.52937698364258
C 59.80966567993164 48.628414154052734 51.5699577331543
C 58.41958999633789 48.06149673461914 51.6243782043457
H 57.74525833129883 48.80028533935547 51.186275482177734
H 58.12435531616211 47.88425064086914 52.66066360473633
H 58.21657943725586 47.23763656616211 50.93698501586914
C 60.81179428100586 47.845176696777344 51.27899169921875
H 61.806819915771484 48.25493240356445 51.11182403564453
C 60.790103912353516 46.37996292114258 50.97673034667969
H 59.9499397277832 45.95820617675781 51.526432037353516
C 61.69221878051758 45.62980270385742 50.330692291259766
H 62.5856819152832 46.095584869384766 49.917537689208984
C 61.676273345947266 44.15355682373047 50.08864212036133
C 62.766910552978516 43.68703079223633 49.20346450805664
H 63.19755172729492 42.74624252319336 49.552642822265625
H 62.34212875366211 43.35858154296875 48.25259780883789
H 63.5918083190918 44.3778190612793 49.0168571472168
C 60.914920806884766 43.228694915771484 50.736324310302734
H 60.24477767944336 43.638832092285156 51.490394592285156
C 61.00236129760742 41.692840576171875 50.72441482543945
H 61.64326095581055 41.24367904663086 49.96717071533203
C 60.4349250793457 40.87879180908203 51.59601974487305
H 59.73292922973633 41.39400863647461 52.2499885559082
C 60.41106033325195 39.386802673339844 51.51823043823242
H 60.7786750793457 38.91560363769531 50.60787582397461
C 59.931941986083984 38.62020492553711 52.45484161376953
C 59.53988265991211 39.1251106262207 53.76223373413086
H 58.85049057006836 39.950469970703125 53.572547912597656
H 59.05864334106445 38.46571731567383 54.487545013427734
H 60.46596908569336 39.56785202026367 54.13480758666992
C 59.82119369506836 37.152339935302734 52.38934326171875
H 59.3612174987793 36.688079833984375 53.26043701171875
C 60.26279067993164 36.34334945678711 51.444149017333984
H 60.915287017822266 36.74237823486328 50.668941497802734
C 60.15158462524414 34.872108459472656 51.555442810058594
H 59.88383865356445 34.50242614746094 52.54416275024414
C 60.45938491821289 33.92158126831055 50.65690994262695
C 60.90108871459961 34.24724578857422 49.27918243408203
H 61.722042083740234 33.60499572753906 48.953582763671875
H 60.03898239135742 34.19310760498047 48.61112594604492
H 61.30251693725586 35.222206115722656 48.99497604370117
C 60.30228042602539 32.533138275146484 51.00463104248047
H 59.938716888427734 32.35932922363281 52.016326904296875
C 60.39381790161133 31.410951614379883 50.21804428100586
H 60.66836166381836 31.574434280395508 49.17697525024414
C 60.19490432739258 29.961688995361328 50.563594818115234
C 61.0307502746582 29.16362953186035 51.33330535888672
C 62.301456451416016 29.64699935913086 51.906715393066406
H 62.23286056518555 30.061973571777344 52.91446304321289
H 63.005924224853516 28.814512252807617 51.85062026977539
H 62.63267135620117 30.528047561645508 51.35306930541992
C 60.92685317993164 27.70012664794922 51.50552749633789
H 61.30463790893555 27.451908111572266 52.49957275390625
H 61.58188247680664 27.247373580932617 50.75825119018555
C 59.53464126586914 27.064868927001953 51.26392364501953
H 58.83928298950195 27.345462799072266 52.05778121948242
H 59.40009689331055 25.981252670288086 51.275516510009766
C 59.19758224487305 27.690080642700195 49.84195327758789
H 59.955867767333984 27.406553268432617 49.10909652709961
H 58.225894927978516 27.302715301513672 49.52852249145508
C 59.056819915771484 29.23571014404297 49.92533493041992
C 58.89738082885742 29.579362869262695 48.50987243652344
H 58.387020111083984 30.536819458007812 48.386314392089844
H 59.84150314331055 29.6065673828125 47.96181106567383
H 58.19084548950195 28.90241241455078 48.025089263916016
C 57.74333572387695 29.716197967529297 50.57109832763672
H 57.75239944458008 29.287670135498047 51.575462341308594
H 57.7672233581543 30.807897567749023 50.58039093017578
H 56.826297760009766 29.28635597229004 50.16276168823242
