207
Triad, Carotenoid-Porphyrin-C60
C 52.25908279418945 34.17422866821289 58.37984848022461
C 47.856651306152344 38.74445724487305 59.62366485595703
C 47.81169509887695 37.15585708618164 58.07207107543945
C 48.84657669067383 34.99728012084961 57.59446716308594
C 48.991188049316406 39.25236892700195 61.73686981201172
C 48.76344680786133 39.50888442993164 60.38408279418945
C 47.537052154541016 37.28281021118164 61.5013427734375
C 47.479557037353516 35.209476470947266 59.58853530883789
C 51.3321647644043 33.272823333740234 60.28189468383789
C 48.415496826171875 38.07320785522461 62.25780487060547
C 50.91365432739258 33.83561325073242 58.10393524169922
C 52.44120407104492 38.43758773803711 62.457881927490234
C 50.32748794555664 39.62954330444336 61.96692657470703
C 53.48469543457031 36.28963088989258 62.07066345214844
C 51.862945556640625 34.45357894897461 62.31159210205078
C 52.987060546875 34.9832649230957 61.75310516357422
C 50.493228912353516 37.64899826049805 63.328636169433594
C 47.776222229003906 35.94600296020508 61.92699432373047
C 47.82142639160156 34.96503829956055 60.92598342895508
C 49.758846282958984 33.9193229675293 61.950096130371094
C 51.63888168334961 38.67515182495117 56.86259460449219
C 51.604061126708984 39.53782272338867 58.13222122192383
C 50.15507507324219 38.188053131103516 56.808658599853516
C 49.41027069091797 38.925045013427734 57.776248931884766
C 53.959014892578125 35.83803176879883 59.91523361206055
C 52.55502700805664 39.44686508178711 59.12849426269531
C 50.18854904174805 34.7181510925293 57.29057312011719
C 52.973907470703125 38.91749954223633 61.286739349365234
C 50.874610900878906 40.10196304321289 60.77107238769531
C 54.01213836669922 36.8228645324707 60.90328598022461
C 49.78141403198242 36.87827682495117 56.64592742919922
C 51.50165557861328 36.6835823059082 63.43614196777344
C 51.10731506347656 35.33830642700195 63.13148498535156
C 48.805057525634766 33.95076370239258 60.89094924926758
C 48.794944763183594 35.95158004760742 62.84572219848633
C 52.70433807373047 37.53683090209961 56.89069747924805
C 53.54888916015625 37.42766189575195 58.14345932006836
C 52.15681838989258 36.114810943603516 56.955101013183594
C 53.692054748535156 36.120052337646484 58.5880126953125
C 51.02743911743164 33.5848503112793 61.58879089355469
C 50.26504135131836 39.80442428588867 58.50254440307617
C 50.749473571777344 35.858821868896484 56.685123443603516
C 52.88500213623047 35.356990814208984 57.779842376708984
C 48.6331901550293 36.3752326965332 57.24040222167969
C 53.304630279541016 34.706295013427734 60.44357681274414
C 53.46714782714844 38.3897819519043 59.18210220336914
C 52.17610549926758 39.7661018371582 60.462406158447266
C 48.24870681762695 38.437252044677734 58.33317184448242
C 49.9046516418457 40.0423698425293 59.84270095825195
C 49.793617248535156 34.956050872802734 62.82528305053711
C 53.72467041015625 38.10134506225586 60.49285125732422
C 52.4335823059082 33.90263748168945 59.684120178222656
C 47.29335403442383 37.63691329956055 60.17375564575195
C 47.296173095703125 36.57608413696289 59.2331657409668
C 48.29045104980469 34.38216018676758 58.713802337646484
C 50.35203552246094 33.29160690307617 59.27431106567383
C 51.10000991821289 38.773311614990234 62.793724060058594
C 52.7161979675293 37.142765045166016 62.89263916015625
C 49.052467346191406 33.5861701965332 59.60054016113281
C 49.19688034057617 37.28569412231445 63.06864547729492
C 52.032230377197266 39.45792007446289 55.63691329956055
N 53.048194885253906 38.93586349487305 55.03240203857422
C 53.68409729003906 37.7543830871582 55.68798828125
H 54.7109375 37.868892669677734 56.044551849365234
H 53.65264892578125 36.97983169555664 54.917449951171875
C 50.51051330566406 43.19465255737305 54.019386291503906
C 49.65300750732422 42.23910903930664 54.64473342895508
H 48.57167053222656 42.33867263793945 54.69338607788086
C 50.19477081298828 41.1110725402832 55.334129333496094
H 49.492462158203125 40.47481918334961 55.86659240722656
C 51.493133544921875 40.765804290771484 55.2337646484375
C 51.81466293334961 42.85686111450195 54.027896881103516
H 52.55251693725586 43.378849029541016 53.42401123046875
C 52.32266616821289 41.65652847290039 54.58561706542969
H 53.38732147216797 41.453121185302734 54.6674919128418
C 49.910160064697266 44.478511810302734 53.38689422607422
C 48.48411178588867 44.69430923461914 53.57381820678711
C 47.46013641357422 44.06864547729492 53.0021858215332
H 47.57583236694336 43.395442962646484 52.1591911315918
C 46.18019485473633 44.47389602661133 53.57258605957031
H 45.19474792480469 44.18124008178711 53.22549057006836
C 46.466793060302734 45.484806060791016 54.41191864013672
N 47.861968994140625 45.62106704711914 54.318824768066406
H 48.443511962890625 46.22953414916992 54.87890625
C 45.58761215209961 46.5259895324707 54.827388763427734
H 44.72205352783203 46.11769485473633 55.34703826904297
C 45.78743362426758 47.86631393432617 55.00382614135742
C 44.932167053222656 48.68587875366211 55.8321647644043
H 44.04426193237305 48.4794807434082 56.420589447021484
C 45.55780029296875 49.91677474975586 55.750492095947266
H 45.24038314819336 50.83928298950195 56.22530746459961
C 46.6932258605957 49.82383346557617 54.84994888305664
N 46.85578536987305 48.5069465637207 54.45336151123047
C 47.476531982421875 50.8582878112793 54.2392692565918
C 48.84341812133789 50.75577163696289 54.07015609741211
C 49.92828369140625 51.69778060913086 54.16099548339844
H 49.901615142822266 52.70906448364258 54.55318069458008
C 51.042816162109375 51.169551849365234 53.61650085449219
H 51.99908447265625 51.652767181396484 53.44539260864258
C 50.837799072265625 49.852535247802734 53.3768424987793
N 49.51319885253906 49.63432693481445 53.671688079833984
H 49.06657028198242 48.745792388916016 53.4896240234375
C 51.723228454589844 48.998661041259766 52.84952163696289
H 52.65306091308594 49.42912673950195 52.480690002441406
C 51.57231903076172 47.55856704711914 52.611671447753906
C 52.43222427368164 46.57893753051758 51.91487121582031
H 53.39710998535156 46.776676177978516 51.45977020263672
C 51.77253723144531 45.41083908081055 52.015052795410156
H 52.15795135498047 44.51569747924805 51.53817367553711
C 50.674163818359375 45.50718307495117 52.85490036010742
N 50.5745735168457 46.829524993896484 53.17990493774414
C 45.68515396118164 54.446231842041016 52.39582061767578
C 47.01017761230469 54.12874221801758 52.267818450927734
H 47.58894729614258 54.7140007019043 51.55783462524414
C 47.5823974609375 53.01321792602539 52.86798095703125
H 48.62144470214844 52.86880874633789 52.58320999145508
C 46.83811950683594 52.0999641418457 53.63385772705078
C 44.91086196899414 53.54854965209961 53.164817810058594
H 43.83564376831055 53.704708099365234 53.131771087646484
C 45.43931198120117 52.37740707397461 53.72968292236328
H 44.81501388549805 51.61643600463867 54.19092559814453
N 45.161521911621094 55.56552505493164 51.68879699707031
H 45.823333740234375 55.95492935180664 51.03422927856445
C 44.02610778808594 56.24687576293945 51.754371643066406
O 43.205684661865234 55.9260368347168 52.567161560058594
C 43.93767166137695 57.5146598815918 50.90338897705078
C 44.16712188720703 57.505130767822266 49.51659393310547
H 44.47197723388672 56.546993255615234 49.10353469848633
C 44.28728485107422 58.71134567260742 48.828956604003906
C 43.951900482177734 59.888065338134766 49.48322296142578
H 44.021690368652344 60.7838020324707 48.87138366699219
C 43.579139709472656 59.92009353637695 50.83937072753906
H 43.38225173950195 60.83089065551758 51.399070739746094
C 43.560707092285156 58.68254470825195 51.548248291015625
H 43.35733413696289 58.59147262573242 52.61216354370117
C 44.57483673095703 58.66172409057617 47.437774658203125
H 44.83961868286133 57.65529251098633 47.11695861816406
C 44.60327911376953 59.612850189208984 46.508750915527344
H 44.219852447509766 60.62062454223633 46.66138458251953
C 44.8741569519043 59.5265007019043 45.044395446777344
C 44.231964111328125 60.616825103759766 44.18949890136719
H 44.199066162109375 60.4101676940918 43.11773681640625
H 44.77556228637695 61.5621223449707 44.24763488769531
H 43.20334243774414 60.78695297241211 44.51425552368164
C 45.65255355834961 58.574337005615234 44.499114990234375
H 45.973670959472656 57.82210922241211 45.218116760253906
C 46.11143112182617 58.45884323120117 43.09538269042969
H 46.17304229736328 59.39823532104492 42.5479621887207
C 46.610923767089844 57.34682083129883 42.53446578979492
H 46.63178634643555 56.4172477722168 43.10137176513672
C 47.1968994140625 57.240352630615234 41.1957893371582
C 48.11506271362305 56.14314651489258 40.99302673339844
H 47.62490463256836 55.186222076416016 40.801979064941406
H 48.70637512207031 56.52800369262695 40.159542083740234
H 48.746986389160156 56.07914352416992 41.88130569458008
C 46.862552642822266 58.08109664916992 40.20981979370117
H 46.213043212890625 58.85930252075195 40.607887268066406
C 47.36406707763672 58.06595993041992 38.804466247558594
H 47.84128952026367 57.159427642822266 38.43517303466797
C 47.47112274169922 59.0771369934082 37.955413818359375
H 47.09355163574219 60.03615951538086 38.307037353515625
C 47.99473190307617 59.08011245727539 36.63008117675781
H 48.46567916870117 58.145687103271484 36.32846450805664
C 47.985076904296875 60.040523529052734 35.736480712890625
C 47.3657112121582 61.39779281616211 35.96661376953125
H 46.671592712402344 61.32856369018555 36.8067741394043
H 48.156002044677734 62.06216049194336 36.32229995727539
H 46.83608627319336 61.80611038208008 35.10334396362305
C 48.397483825683594 59.88566970825195 34.3879508972168
H 48.660194396972656 60.79574203491211 33.850669860839844
C 48.43708419799805 58.6757698059082 33.807098388671875
H 48.020076751708984 57.804439544677734 34.309898376464844
C 48.74564743041992 58.525753021240234 32.39368438720703
H 49.3524055480957 59.274471282958984 31.886533737182617
C 48.55392074584961 57.51456069946289 31.559316635131836
C 47.849212646484375 56.259456634521484 31.88785171508789
H 46.85114288330078 56.507450103759766 32.2550163269043
H 47.77402877807617 55.68184280395508 30.964174270629883
H 48.35481262207031 55.71681594848633 32.68933868408203
C 48.95597457885742 57.560054779052734 30.133975982666016
H 50.02141189575195 57.44890213012695 29.937997817993164
C 48.139312744140625 57.6044807434082 29.064104080200195
H 47.06387710571289 57.699459075927734 29.20672607421875
C 48.568058013916016 57.593326568603516 27.681190490722656
C 49.541683197021484 56.77717208862305 27.20877456665039
C 50.265933990478516 55.73098373413086 27.98491668701172
H 51.306671142578125 56.01315689086914 28.157278060913086
H 49.81160354614258 55.534000396728516 28.958181381225586
H 50.364192962646484 54.84867477416992 27.349029541015625
C 50.19990921020508 56.85456466674805 25.801298141479492
H 49.652984619140625 56.13308334350586 25.190725326538086
H 51.24032974243164 56.5287971496582 25.863439559936523
C 49.947120666503906 58.22016525268555 25.111722946166992
H 50.11492919921875 58.10360336303711 24.039003372192383
H 50.622928619384766 58.99992752075195 25.469087600708008
C 48.4549560546875 58.6634407043457 25.343761444091797
H 48.18767166137695 59.65004348754883 24.959537506103516
H 47.86531066894531 58.0061149597168 24.701335906982422
C 48.03334426879883 58.696468353271484 26.814334869384766
C 48.41887283325195 60.01149368286133 27.293704986572266
H 49.50526809692383 59.925777435302734 27.22399139404297
H 48.07590866088867 60.88090896606445 26.728946685791016
H 48.1838493347168 60.08579635620117 28.357521057128906
C 46.51448059082031 58.69587326049805 26.74435043334961
H 46.15549087524414 59.38792037963867 25.97972869873047
H 46.207054138183594 57.666751861572266 26.547176361083984
H 46.02773666381836 58.92534255981445 27.69455337524414
