207
Triad, Carotenoid-Porphyrin-C60
C 45.405006408691406 55.67177963256836 59.300514221191406
C 48.54547119140625 51.203731536865234 55.82415008544922
C 46.35224914550781 51.468570709228516 56.31140899658203
C 44.733665466308594 53.086483001708984 56.99372482299805
C 50.50389862060547 52.592594146728516 55.908729553222656
C 49.7840576171875 51.50497817993164 56.36540222167969
C 48.71961975097656 53.10995101928711 54.39356231689453
C 45.89665222167969 53.355411529541016 54.88410186767578
C 45.89576721191406 56.79301071166992 57.46894836425781
C 49.93798065185547 53.39986801147461 54.9324836730957
C 44.64594268798828 55.101619720458984 58.26366424560547
C 51.107513427734375 55.14506149291992 58.21763610839844
C 51.13249206542969 53.145503997802734 56.98991775512695
C 49.574546813964844 56.7613410949707 58.925472259521484
C 48.157310485839844 57.49808883666992 57.09196472167969
C 48.400062561035156 57.40529251098633 58.47552490234375
C 50.80921936035156 55.325443267822266 55.98513412475586
C 48.057167053222656 54.304935455322266 54.1531867980957
C 46.63053894042969 54.431339263916016 54.413330078125
C 47.01725769042969 56.64888381958008 55.30350112915039
C 47.452369689941406 51.48698806762695 60.376441955566406
C 48.958106994628906 51.506717681884766 59.92449188232422
C 46.82142639160156 51.110897064208984 59.02571105957031
C 47.78204345703125 50.74357223510742 58.096107482910156
C 47.98029327392578 56.13589859008789 60.3398323059082
C 49.76318359375 52.585628509521484 60.16078567504883
C 44.54374694824219 53.71377944946289 58.23203659057617
C 50.86466979980469 54.355838775634766 59.37885284423828
C 50.9622802734375 52.31467819213867 58.0992431640625
C 49.36106872558594 56.03908157348633 60.04848098754883
C 45.672752380371094 51.79142379760742 58.575927734375
C 50.3057861328125 56.4692268371582 56.64389419555664
C 49.05701446533203 57.030826568603516 56.191688537597656
C 46.10955047607422 55.585506439208984 54.984676361083984
C 48.94428253173828 55.33427810668945 54.48607635498047
C 46.86729431152344 52.75777053833008 61.03404235839844
C 47.85505676269531 53.85920333862305 61.10873031616211
C 45.782310485839844 53.47549057006836 60.28486251831055
C 47.236175537109375 55.06436538696289 60.79133987426758
C 46.910072326660156 57.246150970458984 56.565032958984375
C 49.08289337158203 50.87522506713867 58.633148193359375
C 45.11009216308594 52.889041900634766 59.247684478759766
C 45.982635498046875 54.82136154174805 60.25640869140625
C 45.40912628173828 51.89944839477539 57.21892166137695
C 47.410255432128906 56.95247268676758 59.321407318115234
C 49.2213134765625 53.71370315551758 60.734886169433594
C 50.84849548339844 52.94034194946289 59.31892013549805
C 47.54859161376953 50.87379837036133 56.70512008666992
C 50.0870361328125 51.32722091674805 57.7248649597168
C 48.419288635253906 56.4487419128418 55.15724182128906
C 49.938316345214844 54.80659866333008 60.26129913330078
C 46.12677764892578 56.71963882446289 58.86121368408203
C 47.93475341796875 52.00212478637695 54.855140686035156
C 46.56041717529297 52.15616989135742 55.16074752807617
C 44.94279479980469 53.84187698364258 55.81996154785156
C 44.93260955810547 55.866092681884766 57.09893035888672
C 51.31880187988281 54.533023834228516 56.9901008605957
C 50.47101593017578 56.3201789855957 57.978309631347656
C 45.04511260986328 55.24227523803711 55.81940460205078
C 50.12303924560547 54.754276275634766 54.9467658996582
C 47.28644561767578 50.526065826416016 61.47136306762695
N 46.74280548095703 50.993038177490234 62.51569747924805
C 46.37654113769531 52.4230842590332 62.45564651489258
H 46.68989562988281 53.09298324584961 63.260440826416016
H 45.284088134765625 52.454654693603516 62.469966888427734
C 47.76904296875 46.30739212036133 60.77239227294922
C 46.553749084472656 46.9921989440918 60.4647331237793
H 45.69530487060547 46.43967819213867 60.09141159057617
C 46.449790954589844 48.330806732177734 60.73970413208008
H 45.518096923828125 48.8651237487793 60.57230758666992
C 47.48918151855469 49.03330612182617 61.29026794433594
C 48.83489990234375 47.04378890991211 61.27935791015625
H 49.76228332519531 46.530757904052734 61.520851135253906
C 48.704383850097656 48.40269088745117 61.5911750793457
H 49.50257110595703 48.99820327758789 62.026885986328125
C 47.871742248535156 44.838993072509766 60.35909652709961
C 46.729042053222656 44.22916030883789 59.67142868041992
C 45.57276916503906 43.74344253540039 60.17153549194336
H 45.22569274902344 43.72236251831055 61.19930648803711
C 44.808555603027344 43.211483001708984 59.111610412597656
H 43.88290023803711 42.64921188354492 59.17671203613281
C 45.55474853515625 43.234615325927734 57.984256744384766
N 46.61951446533203 43.9965934753418 58.27507400512695
H 47.318016052246094 44.31648635864258 57.617897033691406
C 45.332489013671875 42.75483322143555 56.64781951904297
H 44.31603240966797 42.81901931762695 56.26230239868164
C 46.293785095214844 42.53644943237305 55.68803024291992
C 46.154640197753906 43.1707649230957 54.406707763671875
H 45.35143280029297 43.78377914428711 54.011356353759766
C 47.3955078125 42.91267013549805 53.870113372802734
H 47.809814453125 43.216915130615234 52.91459655761719
C 48.171531677246094 42.13698959350586 54.78257369995117
N 47.480628967285156 41.896793365478516 55.91555404663086
C 49.5533447265625 41.635799407958984 54.63261795043945
C 50.41792297363281 41.425899505615234 55.710731506347656
C 51.38934326171875 40.42727279663086 55.8837890625
H 51.645843505859375 39.63687515258789 55.18614196777344
C 51.95439147949219 40.57844161987305 57.063053131103516
H 52.733680725097656 39.93764877319336 57.46220016479492
C 51.25148010253906 41.50178146362305 57.88063430786133
N 50.34064483642578 41.96272659301758 56.966522216796875
H 49.652854919433594 42.66904830932617 57.19053268432617
C 51.408782958984375 41.86416244506836 59.16188049316406
H 52.24925231933594 41.429447174072266 59.70091247558594
C 50.653480529785156 42.81344223022461 59.96555709838867
C 50.73968505859375 43.115596771240234 61.363807678222656
H 51.51746368408203 42.83222579956055 62.065223693847656
C 49.76428985595703 44.0361213684082 61.60057830810547
H 49.447906494140625 44.44972610473633 62.55244827270508
C 49.092010498046875 44.2234001159668 60.437015533447266
N 49.5753173828125 43.43284225463867 59.47727584838867
C 50.70338439941406 40.5773811340332 50.52503967285156
C 51.68585968017578 40.6343879699707 51.515995025634766
H 52.70574951171875 40.455997467041016 51.18498992919922
C 51.33403778076172 41.048465728759766 52.89426040649414
H 52.071800231933594 41.128719329833984 53.688507080078125
C 49.98516082763672 41.25716781616211 53.23614501953125
C 49.37377166748047 40.7972526550293 50.83994674682617
H 48.632232666015625 40.486934661865234 50.10824203491211
C 49.05464172363281 41.120792388916016 52.19931411743164
H 47.99449920654297 41.204959869384766 52.42423629760742
N 50.94416046142578 40.13130569458008 49.201900482177734
H 51.485572814941406 39.303165435791016 49.00405502319336
C 50.402862548828125 40.63966751098633 48.04325866699219
O 49.77008056640625 41.70145034790039 48.06912612915039
C 50.89990234375 39.948421478271484 46.78933334350586
C 50.67579650878906 40.60820388793945 45.54417037963867
H 50.328392028808594 41.63643264770508 45.60428237915039
C 50.799285888671875 39.935550689697266 44.33729553222656
C 51.286338806152344 38.63554763793945 44.398780822753906
H 51.32386779785156 38.15658950805664 43.42371368408203
C 51.70024108886719 38.032779693603516 45.61336135864258
H 52.12377166748047 37.03193283081055 45.59086227416992
C 51.42167663574219 38.66450119018555 46.770992279052734
H 51.685028076171875 38.20359420776367 47.71956253051758
C 50.289222717285156 40.61324691772461 43.111663818359375
H 49.8350830078125 41.56731033325195 43.375179290771484
C 50.35606384277344 40.17502975463867 41.80464553833008
H 50.87903594970703 39.238651275634766 41.61594772338867
C 50.05388641357422 40.88283920288086 40.581275939941406
C 50.344268798828125 40.16170120239258 39.3511962890625
H 51.194496154785156 40.5268669128418 38.7713508605957
H 49.39399719238281 40.1060676574707 38.816070556640625
H 50.58042907714844 39.1161994934082 39.56002426147461
C 49.79229736328125 42.14369583129883 40.509708404541016
H 49.546669006347656 42.69185256958008 41.41806411743164
C 49.760955810546875 42.88175582885742 39.27288055419922
H 50.27607727050781 42.4175910949707 38.43316650390625
C 49.099647521972656 44.05210494995117 39.18394088745117
H 48.64983367919922 44.48347854614258 40.07697296142578
C 49.034271240234375 44.966487884521484 38.083656311035156
C 49.081207275390625 44.34601974487305 36.716941833496094
H 50.10600280761719 44.1395149230957 36.40130615234375
H 48.54285430908203 43.401668548583984 36.82108688354492
H 48.610443115234375 44.97165298461914 35.955753326416016
C 48.88488006591797 46.30305099487305 38.24937057495117
H 48.73881530761719 46.73653793334961 39.237640380859375
C 48.988914489746094 47.340030670166016 37.200653076171875
H 49.60186004638672 47.07864761352539 36.339317321777344
C 48.447959899902344 48.56063461303711 37.354209899902344
H 47.89935302734375 48.88765335083008 38.236263275146484
C 48.49250793457031 49.43917465209961 36.174652099609375
H 49.018714904785156 48.97507858276367 35.341800689697266
C 48.075157165527344 50.7077751159668 36.084774017333984
C 47.465301513671875 51.30434799194336 37.24080276489258
H 48.173553466796875 51.58230209350586 38.02412033081055
H 46.95069885253906 52.19487380981445 36.87391662597656
H 46.716644287109375 50.60379409790039 37.61654281616211
C 48.302276611328125 51.554500579833984 34.8731575012207
H 47.72278594970703 52.47433853149414 34.80979537963867
C 49.1304931640625 51.1901741027832 33.8939323425293
H 49.84257507324219 50.370975494384766 33.98214340209961
C 49.34837341308594 52.04338455200195 32.74369812011719
H 48.72428894042969 52.93581771850586 32.742000579833984
C 49.90785217285156 51.714664459228516 31.566242218017578
C 50.40155792236328 50.352840423583984 31.18010711669922
H 50.88257598876953 49.84054946899414 32.01595687866211
H 49.55168914794922 49.72914505004883 30.89516830444336
H 51.09858703613281 50.35275650024414 30.33950424194336
C 49.642906188964844 52.646793365478516 30.477428436279297
H 49.56288146972656 52.18632125854492 29.49382209777832
C 49.37132263183594 53.9579963684082 30.556251525878906
H 49.386573791503906 54.43232345581055 31.536407470703125
C 49.00188446044922 54.90964889526367 29.497888565063477
C 49.69865417480469 55.02800369262695 28.362316131591797
C 50.99998474121094 54.402286529541016 28.04819679260254
H 51.78807830810547 55.157657623291016 28.076311111450195
H 51.286949157714844 53.68465042114258 28.819629669189453
H 50.991477966308594 53.942867279052734 27.05758285522461
C 49.326751708984375 55.99647903442383 27.232975006103516
H 48.77398681640625 55.41767501831055 26.49007225036621
H 50.23493957519531 56.39725112915039 26.777956008911133
C 48.42835235595703 57.168025970458984 27.721965789794922
H 48.113525390625 57.82382583618164 26.907546997070312
H 49.039329528808594 57.7804069519043 28.388408660888672
C 47.308258056640625 56.488033294677734 28.4835147857666
H 46.58387756347656 57.2617301940918 28.746442794799805
H 46.859893798828125 55.73928451538086 27.82715606689453
C 47.76606750488281 55.769405364990234 29.78732681274414
C 48.05754089355469 56.848018646240234 30.787410736083984
H 48.900665283203125 57.46195602416992 30.463848114013672
H 47.19097137451172 57.47884750366211 30.99616241455078
H 48.20027160644531 56.4834098815918 31.806793212890625
C 46.60923767089844 54.95518112182617 30.367534637451172
H 46.514244079589844 54.050960540771484 29.762706756591797
H 46.79058837890625 54.6478385925293 31.399581909179688
H 45.71260070800781 55.57258224487305 30.281963348388672
