207
Triad, Carotenoid-Porphyrin-C60
C 57.73402404785156 47.5397834777832 60.79384231567383
C 62.076019287109375 48.90291976928711 55.98963928222656
C 61.27784729003906 50.11330795288086 57.68918991088867
C 60.21616744995117 49.995845794677734 59.9021110534668
C 62.20552444458008 46.59360122680664 55.4431266784668
C 61.68852233886719 47.86783981323242 55.14891052246094
C 63.250545501708984 47.36056137084961 57.40877151489258
C 62.42354965209961 48.93903732299805 59.548526763916016
C 59.558448791503906 46.34568405151367 61.47402572631836
C 63.02703857421875 46.3466911315918 56.542572021484375
C 58.76155090332031 48.40370559692383 61.00520706176758
C 59.66447830200195 44.15559768676758 56.30592346191406
C 61.16157150268555 45.66411209106445 55.14064407348633
C 58.65933609008789 43.87552261352539 58.43368911743164
C 60.125762939453125 44.318912506103516 60.317073822021484
C 58.83525085449219 44.24484634399414 59.765201568603516
C 61.766719818115234 44.28923416137695 57.0746955871582
C 63.3228759765625 46.8770637512207 58.73885726928711
C 62.91688919067383 47.68972396850586 59.80594253540039
C 61.79518508911133 45.79951095581055 60.76591873168945
C 57.34825134277344 49.349308013916016 56.29964065551758
C 58.04082489013672 48.31818771362305 55.39469909667969
C 58.67607498168945 49.98481369018555 56.752681732177734
C 59.7092170715332 49.7020378112793 55.89124298095703
C 57.06516647338867 45.384708404541016 59.05747604370117
C 57.790714263916016 46.93552017211914 55.4580078125
C 58.9721565246582 49.54243850708008 60.18124008178711
C 58.551448822021484 44.89767074584961 55.81813430786133
C 60.0195198059082 46.4050407409668 54.70779037475586
C 57.49960708618164 44.5890007019043 58.0425910949707
C 58.94363021850586 50.31794357299805 58.07059860229492
C 61.02499008178711 43.70038986206055 58.12869644165039
C 61.22883605957031 44.0864143371582 59.45156478881836
C 62.094913482666016 47.147953033447266 60.77383041381836
C 62.96701431274414 45.561885833740234 58.673160552978516
C 56.516353607177734 48.734004974365234 57.48249435424805
C 56.51642608642578 47.255130767822266 57.49270248413086
C 57.064083099365234 48.968143463134766 58.8902473449707
C 56.61368942260742 46.75104904174805 58.80436325073242
C 60.512718200683594 45.362911224365234 61.16254806518555
C 59.35997009277344 48.70120620727539 55.00186538696289
C 58.1134147644043 49.87124252319336 59.12265396118164
C 56.935245513916016 47.82217025756836 59.67887496948242
C 60.218265533447266 50.38374710083008 58.5770149230957
C 57.917823791503906 45.23566818237305 60.13859176635742
C 56.979305267333984 46.43074417114258 56.425315856933594
C 58.70158767700195 46.024662017822266 55.06303405761719
C 61.052494049072266 49.77531814575195 56.33238983154297
C 60.33879852294922 47.729671478271484 54.71957015991211
C 62.24365997314453 45.016841888427734 59.69585037231445
C 57.49055862426758 45.14278793334961 56.728450775146484
C 58.224910736083984 46.26571273803711 60.99880599975586
C 62.823585510253906 48.65871810913086 57.10276412963867
C 62.380252838134766 49.399723052978516 58.20408248901367
C 61.3355598449707 49.26826095581055 60.35269546508789
C 59.87213897705078 47.683231353759766 61.49210739135742
C 60.91179656982422 44.54164505004883 55.97686004638672
C 59.71961212158203 43.65542221069336 57.64899826049805
C 61.13023376464844 48.11905288696289 61.15560531616211
C 62.75457763671875 45.21965408325195 57.3387565612793
C 56.37610626220703 50.35982894897461 55.70932388305664
N 55.24873352050781 50.3471794128418 56.3812255859375
C 55.07781219482422 49.14430618286133 57.210384368896484
H 54.506736755371094 48.3393669128418 56.74070358276367
H 54.641841888427734 49.4653205871582 58.15987777709961
C 57.605892181396484 53.24845504760742 52.75461959838867
C 57.730247497558594 51.86520004272461 52.56907272338867
H 58.07986831665039 51.39553451538086 51.653236389160156
C 57.291015625 50.953487396240234 53.455345153808594
H 57.31975173950195 49.89151382446289 53.225223541259766
C 56.797882080078125 51.339115142822266 54.720252990722656
C 57.11610794067383 53.625553131103516 53.99551010131836
H 56.86729431152344 54.68294143676758 54.035465240478516
C 56.75227737426758 52.698604583740234 55.02155303955078
H 56.301109313964844 52.95338821411133 55.97711944580078
C 57.960025787353516 54.153377532958984 51.6097412109375
C 58.39567184448242 53.53709030151367 50.30298614501953
C 59.44906997680664 52.78695297241211 49.981910705566406
H 60.23857116699219 52.34235763549805 50.57877731323242
C 59.237632751464844 52.41682815551758 48.612728118896484
H 59.907981872558594 51.814754486083984 48.008277893066406
C 58.09407424926758 53.01888656616211 48.15693283081055
N 57.58320999145508 53.69112014770508 49.19509506225586
H 56.69113540649414 54.1563606262207 49.09573745727539
C 57.58737564086914 53.14274978637695 46.79173278808594
H 58.11688995361328 52.502017974853516 46.088172912597656
C 56.59811019897461 53.8577995300293 46.27857208251953
C 56.428916931152344 53.94878005981445 44.859588623046875
H 57.01694869995117 53.45769119262695 44.0912971496582
C 55.51370620727539 54.98178482055664 44.79753112792969
H 55.24473190307617 55.46855545043945 43.865901947021484
C 55.046077728271484 55.30448532104492 46.09537124633789
N 55.72248458862305 54.56980514526367 47.016910552978516
C 54.03324508666992 56.30705642700195 46.55310821533203
C 54.40366744995117 57.31486892700195 47.4466438293457
C 54.424530029296875 58.70747756958008 47.27328109741211
H 53.9689826965332 59.1439323425293 46.39055252075195
C 55.01926803588867 59.29719161987305 48.37660217285156
H 55.254451751708984 60.30850601196289 48.69150924682617
C 55.610530853271484 58.33724594116211 49.176429748535156
N 55.29389572143555 57.209529876708984 48.47933578491211
H 55.746253967285156 56.36362838745117 48.79863739013672
C 56.29643630981445 58.525882720947266 50.29620361328125
H 56.50313949584961 59.53646469116211 50.64537048339844
C 56.8131103515625 57.45570755004883 51.134910583496094
C 57.63652801513672 57.63070297241211 52.28855895996094
H 57.72999954223633 58.5189094543457 52.9046516418457
C 58.142059326171875 56.40439987182617 52.52366256713867
H 58.83176040649414 56.17379379272461 53.3288688659668
C 57.6173095703125 55.502567291259766 51.67567825317383
N 56.791255950927734 56.1426887512207 50.7855339050293
C 49.80295181274414 55.99089431762695 45.47534942626953
C 50.280921936035156 57.08731460571289 46.18174362182617
H 49.5377197265625 57.834293365478516 46.44865798950195
C 51.618263244628906 57.20090866088867 46.49039077758789
H 51.83641052246094 58.06985092163086 47.1059684753418
C 52.624263763427734 56.22860336303711 46.154170989990234
C 50.72488021850586 54.9646110534668 45.06368637084961
H 50.420528411865234 54.09122848510742 44.49259567260742
C 52.1067008972168 55.1516227722168 45.35639953613281
H 52.818603515625 54.3799934387207 45.07471466064453
N 48.36257553100586 55.99434280395508 45.35598373413086
H 47.991432189941406 56.912052154541016 45.5512809753418
C 47.4906005859375 54.910953521728516 45.313323974609375
O 47.93263626098633 53.7936897277832 45.09690475463867
C 46.05990982055664 55.168819427490234 45.46588134765625
C 45.16145706176758 54.134029388427734 45.23075866699219
H 45.54460906982422 53.14902114868164 44.97675704956055
C 43.81449890136719 54.353023529052734 45.26894760131836
C 43.32848358154297 55.62765884399414 45.55632019042969
H 42.25740432739258 55.717708587646484 45.718353271484375
C 44.229801177978516 56.677982330322266 45.77225875854492
H 43.85398483276367 57.678279876708984 45.97160720825195
C 45.55611801147461 56.45756912231445 45.63608932495117
H 46.207855224609375 57.29465866088867 45.87290573120117
C 42.89008331298828 53.19023513793945 44.94723892211914
H 43.47580337524414 52.294437408447266 44.74625015258789
C 41.55961608886719 53.09120559692383 44.835018157958984
H 40.915531158447266 53.936092376708984 45.07427978515625
C 40.82931900024414 51.84148025512695 44.71905517578125
C 41.59978103637695 50.651920318603516 45.15921401977539
H 42.548851013183594 50.86014175415039 45.657569885253906
H 41.90663528442383 49.95610427856445 44.37553405761719
H 41.003849029541016 50.16343307495117 45.9329719543457
C 39.579627990722656 51.75321578979492 44.249027252197266
H 39.05615997314453 52.6769905090332 44.007083892822266
C 38.814212799072266 50.56070327758789 43.97153854370117
H 39.346641540527344 49.629573822021484 44.1598014831543
C 37.505882263183594 50.57951736450195 43.59355926513672
H 37.06773376464844 51.57326889038086 43.67363357543945
C 36.563655853271484 49.45285415649414 43.20796203613281
C 35.161800384521484 49.72030258178711 43.57734298706055
H 34.93564987182617 50.6329460144043 44.13267135620117
H 34.705902099609375 49.87070083618164 42.59652328491211
H 34.68373489379883 48.80185317993164 43.924285888671875
C 36.933349609375 48.28867721557617 42.63465118408203
H 37.98336410522461 48.17966842651367 42.36723709106445
C 36.095947265625 47.107730865478516 42.20704650878906
H 35.032073974609375 47.18143844604492 42.427650451660156
C 36.610748291015625 46.08180618286133 41.470787048339844
H 37.66551971435547 46.06644821166992 41.20033645629883
C 35.79553985595703 44.9561653137207 41.037132263183594
H 34.72734832763672 45.13460159301758 40.9228401184082
C 36.279075622558594 43.77028274536133 40.69403839111328
C 37.789833068847656 43.550472259521484 40.721622467041016
H 38.174800872802734 43.71457290649414 41.73025131225586
H 38.094200134277344 42.531436920166016 40.47385787963867
H 38.27781295776367 44.22910690307617 40.0189208984375
C 35.558528900146484 42.66097640991211 40.07375717163086
H 36.11277389526367 41.94386672973633 39.470035552978516
C 34.2656364440918 42.47018051147461 40.13297653198242
H 33.76961898803711 43.267574310302734 40.68438720703125
C 33.446842193603516 41.360416412353516 39.57632827758789
H 34.04353332519531 40.49862289428711 39.28103256225586
C 32.13097381591797 41.29094314575195 39.31343078613281
C 31.218536376953125 42.41288375854492 39.59716796875
H 30.755720138549805 42.20072555541992 40.56321716308594
H 31.683149337768555 43.388309478759766 39.7557373046875
H 30.543052673339844 42.46696853637695 38.74085998535156
C 31.552749633789062 40.0942268371582 38.71964645385742
H 32.27165985107422 39.41728591918945 38.260475158691406
C 30.236785888671875 39.75278854370117 38.699581146240234
H 29.554920196533203 40.39181137084961 39.25871658325195
C 29.619632720947266 38.65213394165039 38.13662338256836
C 29.89686393737793 38.21296310424805 36.85514450073242
C 30.984193801879883 38.75827407836914 35.992679595947266
H 31.909759521484375 38.19199752807617 36.11564636230469
H 30.736356735229492 38.66538619995117 34.9332389831543
H 31.081714630126953 39.84504318237305 36.03602600097656
C 29.252201080322266 37.01487350463867 36.23866271972656
H 29.905406951904297 36.16569137573242 36.450016021728516
H 29.287683486938477 37.124568939208984 35.152767181396484
C 27.79691505432129 36.81825637817383 36.81670379638672
H 27.240903854370117 36.0081901550293 36.34014129638672
H 27.173734664916992 37.663021087646484 36.515892028808594
C 28.034439086914062 36.72935104370117 38.30453872680664
H 27.162832260131836 36.391605377197266 38.86907196044922
H 28.794029235839844 35.99895095825195 38.59090042114258
C 28.415855407714844 38.02011489868164 38.93235397338867
C 27.188011169433594 38.894107818603516 38.90007400512695
H 27.491004943847656 39.746639251708984 39.511505126953125
H 26.959474563598633 39.28841781616211 37.9077262878418
H 26.322498321533203 38.36233901977539 39.30080032348633
C 28.6463680267334 37.75521469116211 40.42583084106445
H 29.313810348510742 36.89116287231445 40.44584274291992
H 29.243295669555664 38.49800491333008 40.95913314819336
H 27.746530532836914 37.49117660522461 40.98533248901367
