207
Triad, Carotenoid-Porphyrin-C60
C 55.03232955932617 55.66117477416992 30.627891540527344
C 49.52932357788086 56.18812942504883 34.019893646240234
C 51.403507232666016 57.40053939819336 34.25701141357422
C 53.411495208740234 57.86227798461914 32.92830276489258
C 48.44205093383789 54.795284271240234 32.30669021606445
C 49.0681037902832 54.96272659301758 33.595611572265625
C 48.85939407348633 57.04157638549805 31.926925659179688
C 51.22224807739258 58.62460708618164 32.199951171875
C 53.786128997802734 56.712284088134766 29.076854705810547
C 48.355594635009766 55.82423782348633 31.43564224243164
C 54.723453521728516 56.90385818481445 31.122638702392578
C 50.102535247802734 52.50472640991211 30.10744285583496
C 48.81052017211914 53.555667877197266 31.849960327148438
C 52.001155853271484 53.08171463012695 28.813190460205078
C 51.977176666259766 55.39362716674805 28.042098999023438
C 52.72671127319336 54.2191276550293 28.304092407226562
C 48.89577102661133 54.35789108276367 29.62550163269043
C 49.38783645629883 57.6284294128418 30.775253295898438
C 50.58304977416992 58.374996185302734 30.959827423095703
C 51.42246627807617 57.42696762084961 28.888469696044922
C 53.306819915771484 53.585933685302734 34.69965744018555
C 51.973026275634766 52.95244216918945 34.256568908691406
C 52.85124588012695 54.9663200378418 34.95557403564453
C 51.44562911987305 55.05891036987305 34.96623229980469
C 53.9825553894043 53.206363677978516 29.91335678100586
C 51.84016799926758 52.165096282958984 33.11848831176758
C 54.41886520385742 57.02070999145508 32.48983383178711
C 50.9441032409668 51.93803024291992 31.10390853881836
C 49.536869049072266 52.914798736572266 32.8277473449707
C 52.818172454833984 52.50089645385742 29.806480407714844
C 53.476985931396484 56.0417594909668 34.31755447387695
C 49.9414176940918 54.26631546020508 28.701257705688477
C 50.625858306884766 55.44395065307617 28.342529296875
C 51.62327194213867 58.25664138793945 29.983440399169922
C 49.21072006225586 56.812076568603516 29.69476318359375
C 54.40535354614258 53.41328811645508 33.60685729980469
C 54.09489822387695 52.720333099365234 32.33261489868164
C 54.951419830322266 54.738529205322266 32.95448684692383
C 54.61673355102539 53.33445358276367 31.144214630126953
C 52.50790023803711 56.63620376586914 28.475971221923828
C 50.99288558959961 53.82246017456055 34.57072067260742
C 54.439701080322266 55.92342758178711 33.35626220703125
C 55.086788177490234 54.601871490478516 31.57915496826172
C 52.777950286865234 57.17911911010742 33.98030471801758
C 53.93058395385742 54.31454849243164 29.008193969726562
C 52.88774490356445 52.02634811401367 32.20294189453125
C 50.60397720336914 52.096431732177734 32.44830322265625
C 50.724788665771484 56.2401237487793 34.671756744384766
C 49.71767807006836 53.7803840637207 33.854583740234375
C 50.25117874145508 56.68111801147461 28.766355514526367
C 52.32856369018555 51.99431228637695 30.974720001220703
C 54.478702545166016 55.50751876831055 29.361635208129883
C 49.40712356567383 57.28989791870117 33.19002914428711
C 50.57926559448242 58.0349006652832 33.332523345947266
C 52.60287094116211 58.525516510009766 31.979450225830078
C 53.935115814208984 57.54909896850586 30.13761329650879
C 49.05367660522461 53.30264663696289 30.495805740356445
C 50.61830520629883 53.08670425415039 28.94659996032715
C 52.81184005737305 58.289432525634766 30.602130889892578
C 48.5018196105957 55.6286735534668 30.058979034423828
C 53.87593460083008 52.880619049072266 35.88848876953125
N 54.98152542114258 52.319637298583984 35.67330551147461
C 55.560909271240234 52.63583755493164 34.38046646118164
H 55.76945877075195 51.69198226928711 33.87028503417969
H 56.42146682739258 53.27216720581055 34.602230072021484
C 51.7348747253418 52.39841842651367 39.739253997802734
C 51.4549674987793 51.51700210571289 38.67788314819336
H 50.888729095458984 50.60319900512695 38.838863372802734
C 52.153926849365234 51.6795768737793 37.450374603271484
H 51.90663528442383 51.025882720947266 36.61785125732422
C 53.15080642700195 52.636898040771484 37.1705322265625
C 52.83218765258789 53.31278610229492 39.46078109741211
H 53.189083099365234 53.90999984741211 40.29596710205078
C 53.4835319519043 53.4177360534668 38.200279235839844
H 54.35097885131836 54.068241119384766 38.12308120727539
C 51.0518684387207 52.206607818603516 41.06693649291992
C 50.05733108520508 51.0984001159668 41.16716766357422
C 48.990421295166016 50.709529876708984 40.35033416748047
H 48.58736801147461 51.265262603759766 39.510128021240234
C 48.410709381103516 49.6756706237793 41.064022064208984
H 47.48421859741211 49.20212173461914 40.756446838378906
C 49.08546829223633 49.4178352355957 42.21162796020508
N 50.06064987182617 50.30855178833008 42.293697357177734
H 50.71060562133789 50.42581558227539 43.05915832519531
C 48.93915939331055 48.46639633178711 43.26847457885742
H 48.330265045166016 47.577335357666016 43.1111946105957
C 49.7264518737793 48.41975784301758 44.41734313964844
C 50.39946365356445 47.22299575805664 44.653785705566406
H 50.390750885009766 46.325130462646484 44.0446891784668
C 51.072872161865234 47.47221755981445 45.83734893798828
H 51.69059371948242 46.84611129760742 46.4726676940918
C 50.618595123291016 48.81673812866211 46.29389572143555
N 49.74100112915039 49.336307525634766 45.406898498535156
C 51.1886100769043 49.50264358520508 47.43705749511719
C 51.3696403503418 50.86159896850586 47.51468276977539
C 51.38827896118164 51.82621383666992 48.5789680480957
H 51.40754318237305 51.47407913208008 49.60505676269531
C 51.349422454833984 53.102848052978516 48.02103805541992
H 51.22110366821289 54.00687026977539 48.60712432861328
C 51.34804916381836 53.05002212524414 46.5721321105957
N 51.286495208740234 51.72690963745117 46.41242980957031
H 51.344783782958984 51.3968620300293 45.45860290527344
C 51.5073127746582 54.030582427978516 45.631187438964844
H 51.585750579833984 55.0572624206543 45.9857292175293
C 51.5621223449707 53.92061233520508 44.1509895324707
C 51.61430740356445 54.98997116088867 43.21289825439453
H 51.77775955200195 56.05373764038086 43.35043716430664
C 51.520320892333984 54.42033004760742 41.95561981201172
H 51.4357795715332 54.918453216552734 40.99543762207031
C 51.366695404052734 53.05826950073242 42.12808609008789
N 51.353755950927734 52.81748580932617 43.42776107788086
C 52.56478500366211 47.127925872802734 50.90513229370117
C 53.13578414916992 48.397708892822266 50.70194625854492
H 53.990962982177734 48.7412223815918 51.278343200683594
C 52.67787551879883 49.173702239990234 49.565208435058594
H 53.15583419799805 50.10361099243164 49.26789093017578
C 51.71294021606445 48.67813491821289 48.597042083740234
C 51.66086196899414 46.67252731323242 49.9505615234375
H 51.22407150268555 45.69430923461914 50.13462448120117
C 51.2386360168457 47.37759780883789 48.83065414428711
H 50.54007339477539 46.96027755737305 48.10993957519531
N 52.83889389038086 46.30791091918945 52.076690673828125
H 52.11796951293945 45.607357025146484 52.163726806640625
C 53.99465560913086 46.25102615356445 52.87846374511719
O 54.89997482299805 47.068607330322266 52.707332611083984
C 54.104183197021484 45.25557327270508 53.96702575683594
C 53.0543098449707 45.01119613647461 54.87082290649414
H 52.17686080932617 45.63838577270508 54.73563766479492
C 53.14975357055664 43.95851516723633 55.803192138671875
C 54.35566329956055 43.15947341918945 55.78419494628906
H 54.44931411743164 42.28127670288086 56.41788864135742
C 55.33742904663086 43.355098724365234 54.832115173339844
H 56.09187698364258 42.572574615478516 54.83903884887695
C 55.32613754272461 44.50310134887695 53.949012756347656
H 56.14985275268555 44.786067962646484 53.29863357543945
C 52.127376556396484 43.77155685424805 56.89487075805664
H 51.29169845581055 44.46266555786133 56.79521942138672
C 52.162166595458984 43.002681732177734 58.042274475097656
H 53.05527877807617 42.415889739990234 58.25192642211914
C 51.132022857666016 42.92702865600586 59.13296890258789
C 51.58317184448242 42.282535552978516 60.43008041381836
H 52.4588737487793 41.64339828491211 60.299278259277344
H 50.772274017333984 41.68715286254883 60.85484313964844
H 51.71535873413086 43.083683013916016 61.160255432128906
C 49.8187370300293 43.264888763427734 58.94130325317383
H 49.636051177978516 43.79367446899414 58.00699234008789
C 48.6684684753418 43.0860481262207 59.794830322265625
H 48.983882904052734 42.89323806762695 60.81916427612305
C 47.3858528137207 43.116695404052734 59.342369079589844
H 47.37277603149414 43.22481155395508 58.258827209472656
C 46.19196701049805 43.06193161010742 60.1345100402832
C 45.013919830322266 42.6556510925293 59.33580780029297
H 44.31050491333008 41.99995803833008 59.85322952270508
H 44.50498580932617 43.44514083862305 58.778892517089844
H 45.39406204223633 41.922367095947266 58.62148666381836
C 46.09160232543945 42.977901458740234 61.45491027832031
H 47.03107833862305 42.87456130981445 61.995872497558594
C 44.899784088134766 42.79399490356445 62.38673782348633
H 43.93539810180664 42.97584915161133 61.914695739746094
C 45.0537223815918 42.6359748840332 63.73075485229492
H 46.07426071166992 42.636173248291016 64.11077880859375
C 43.95957565307617 42.40639877319336 64.67727661132812
H 42.99142074584961 42.80409622192383 64.3765640258789
C 44.07844924926758 41.73640060424805 65.77096557617188
C 45.25923538208008 41.17228317260742 66.42094421386719
H 45.82206344604492 41.98105239868164 66.89167785644531
H 44.92380142211914 40.470767974853516 67.18763732910156
H 45.85837936401367 40.7212028503418 65.62720489501953
C 42.9502067565918 41.524288177490234 66.63581848144531
H 41.99192428588867 41.24514389038086 66.20027160644531
C 42.875972747802734 41.8559684753418 67.95442962646484
H 43.74319076538086 42.267818450927734 68.46846771240234
C 41.66617965698242 41.89669418334961 68.73095703125
H 40.73604965209961 41.59463119506836 68.25186157226562
C 41.51057815551758 42.12177658081055 70.06011199951172
C 42.598758697509766 42.680965423583984 70.87450408935547
H 42.79941940307617 43.67085647583008 70.45940399169922
H 42.351993560791016 42.70315170288086 71.93802642822266
H 43.473148345947266 42.027103424072266 70.89408111572266
C 40.26682662963867 42.03476333618164 70.77092742919922
H 40.19712448120117 42.45917892456055 71.77139282226562
C 39.01028060913086 41.6779670715332 70.33184051513672
H 38.8402214050293 41.18376541137695 69.37645721435547
C 37.721553802490234 41.709781646728516 71.04302215576172
C 37.262577056884766 42.890316009521484 71.53437805175781
C 38.11624526977539 44.14467239379883 71.63227844238281
H 37.53358840942383 45.0411262512207 71.85441589355469
H 38.82392501831055 44.002437591552734 72.45167541503906
H 38.615535736083984 44.37636184692383 70.68914031982422
C 36.00796890258789 43.07960891723633 72.25875854492188
H 35.34041213989258 43.78451919555664 71.75881958007812
H 36.2359504699707 43.56802749633789 73.20845794677734
C 35.22024917602539 41.817081451416016 72.515869140625
H 34.207645416259766 42.0468635559082 72.85395050048828
H 35.51503372192383 41.16335678100586 73.33940887451172
C 35.311336517333984 41.02005386352539 71.26373291015625
H 34.55878829956055 40.2528190612793 71.45736694335938
H 34.788028717041016 41.63235855102539 70.5263900756836
C 36.75957107543945 40.595218658447266 70.93872833251953
C 37.15694046020508 39.51081466674805 72.02302551269531
H 37.22311019897461 39.90752029418945 73.03826141357422
H 36.39085006713867 38.74209976196289 71.9019775390625
H 38.08726119995117 39.00075912475586 71.7645492553711
C 36.7740592956543 39.83998489379883 69.64866638183594
H 36.549381256103516 40.52743148803711 68.83049774169922
H 37.73196792602539 39.35824966430664 69.44178771972656
H 36.08414077758789 38.99802017211914 69.56158447265625
