207
Triad, Carotenoid-Porphyrin-C60
C 53.43374252319336 36.17790985107422 46.73487091064453
C 53.58476638793945 41.116729736328125 42.61164855957031
C 53.55506896972656 41.064308166503906 44.83405303955078
C 53.99063491821289 39.66889190673828 46.700958251953125
C 54.203102111816406 39.573341369628906 40.82610321044922
C 53.23625564575195 40.357513427734375 41.494667053222656
C 55.86347198486328 40.270416259765625 42.40526580810547
C 55.76775360107422 40.35772705078125 45.206199645996094
C 55.64290237426758 35.986236572265625 46.17308044433594
C 55.497802734375 39.531982421875 41.29058837890625
C 54.10361099243164 37.33454895019531 47.138671875
C 53.62140655517578 36.00334930419922 40.9019775390625
C 53.58992385864258 38.38422393798828 40.45873260498047
C 54.0943603515625 34.53901672363281 42.73796844482422
C 56.04176712036133 35.230224609375 43.868499755859375
C 54.86143112182617 34.506492614746094 43.881431579589844
C 55.58034896850586 37.11775207519531 40.85675048828125
C 56.733062744140625 39.49046325683594 43.147300720214844
C 56.687477111816406 39.578514099121094 44.534568786621094
C 57.062313079833984 37.13750457763672 44.51591491699219
C 50.0386962890625 38.64501953125 44.38317108154297
C 50.413246154785156 38.502906799316406 42.963111877441406
C 50.97652053833008 39.793304443359375 44.825218200683594
C 51.545570373535156 40.37578582763672 43.725067138671875
C 52.69002151489258 34.67213439941406 44.53419494628906
C 50.758140563964844 37.286293029785156 42.35997772216797
C 53.39361572265625 38.52043151855469 47.110801696777344
C 52.30780792236328 36.11271667480469 41.341400146484375
C 52.24765396118164 38.44568634033203 40.86347198486328
C 52.793113708496094 34.63209533691406 43.16669464111328
C 51.86941909790039 39.71507263183594 45.96996307373047
C 55.76905822753906 35.90784454345703 41.601768493652344
C 56.46355438232422 35.92705535888672 42.760772705078125
C 56.88050079345703 38.370826721191406 45.221534729003906
C 56.92403793334961 38.30052185058594 42.47863006591797
C 50.24334716796875 37.35334014892578 45.21934509277344
C 50.70399856567383 36.09239959716797 44.43926239013672
C 51.38139343261719 37.40485382080078 46.27485656738281
C 51.737300872802734 35.46075439453125 45.149864196777344
C 56.41681671142578 35.969337463378906 44.98857879638672
C 51.191829681396484 39.65812683105469 42.634422302246094
C 52.092506408691406 38.52647399902344 46.59912872314453
C 52.13983154296875 36.27740478515625 46.2230224609375
C 53.10477066040039 40.3858642578125 46.0042724609375
C 54.00249099731445 34.613441467285156 45.024620056152344
C 50.89125442504883 36.12425231933594 43.064849853515625
C 51.611568450927734 37.29566192626953 41.32074737548828
C 52.75844955444336 41.077720642089844 43.7359619140625
C 52.03853988647461 39.64826202392578 41.50724792480469
C 57.10488510131836 37.11585235595703 43.170379638671875
C 51.89128494262695 35.383384704589844 42.42283630371094
C 54.3555908203125 35.403961181640625 46.11639404296875
C 54.90138244628906 41.077880859375 43.047035217285156
C 54.854618072509766 41.110107421875 44.44645690917969
C 55.347557067871094 39.64634704589844 46.31721496582031
C 55.47146224975586 37.24153137207031 46.80909729003906
C 54.22488021850586 37.189613342285156 40.47843933105469
C 54.5040168762207 35.23899841308594 41.58765411376953
C 56.05990219116211 38.4058837890625 46.3314208984375
C 56.16321563720703 38.307334899902344 41.30609893798828
C 48.52210235595703 38.97410583496094 44.55354309082031
N 47.95795822143555 38.20439147949219 45.40130615234375
C 48.87175369262695 37.096923828125 45.95759582519531
H 48.684104919433594 36.041053771972656 45.74646759033203
H 49.01045227050781 37.19774627685547 47.03705596923828
C 46.25208282470703 42.30298614501953 42.989837646484375
C 45.62328338623047 41.021400451660156 43.28257751464844
H 44.576751708984375 40.880165100097656 43.02490997314453
C 46.37107467651367 40.00048828125 43.77460479736328
H 45.80667495727539 39.07420349121094 43.84544372558594
C 47.795005798339844 40.14427947998047 43.97428894042969
C 47.60896682739258 42.42655944824219 43.21696472167969
H 48.0521240234375 43.418968200683594 43.199485778808594
C 48.39025115966797 41.374046325683594 43.71300506591797
H 49.41423797607422 41.612022399902344 43.98938751220703
C 45.37847137451172 43.478721618652344 42.486724853515625
C 43.99938201904297 43.19123077392578 42.07176971435547
C 43.51719665527344 42.32917785644531 41.08216857910156
H 44.1273078918457 41.650054931640625 40.49584197998047
C 42.15126419067383 42.6806640625 40.909019470214844
H 41.51974105834961 42.26006317138672 40.133460998535156
C 41.86618423461914 43.737831115722656 41.76721954345703
N 42.929832458496094 43.918128967285156 42.54303741455078
H 42.988582611083984 44.588096618652344 43.297889709472656
C 40.62638473510742 44.45301055908203 41.984962463378906
H 39.88597106933594 44.173797607421875 41.23680114746094
C 40.33667755126953 45.5819091796875 42.73815155029297
C 39.09883117675781 46.24884033203125 42.734840393066406
H 38.209625244140625 45.98613739013672 42.171348571777344
C 39.42407989501953 47.354034423828125 43.481529235839844
H 38.823570251464844 48.24934387207031 43.60413360595703
C 40.74012756347656 47.27130889892578 43.97859191894531
N 41.33761215209961 46.19532012939453 43.43096160888672
C 41.492435455322266 48.25080871582031 44.779754638671875
C 42.73396301269531 48.703941345214844 44.48902130126953
C 43.20588684082031 50.030357360839844 44.327178955078125
H 42.56312561035156 50.83837127685547 44.66065216064453
C 44.37677764892578 50.079872131347656 43.50604248046875
H 44.899757385253906 50.93689727783203 43.09468078613281
C 44.830509185791016 48.77216339111328 43.381256103515625
N 43.77767562866211 48.098541259765625 43.90916442871094
H 43.78879165649414 47.089210510253906 43.852195739746094
C 45.90496063232422 48.27141571044922 42.69169616699219
H 46.65135955810547 49.02568054199219 42.44696807861328
C 46.22319412231445 46.923439025878906 42.35919952392578
C 47.33972930908203 46.41044616699219 41.66310119628906
H 48.25191116333008 46.85527801513672 41.279335021972656
C 47.1284294128418 45.05303192138672 41.5787353515625
H 47.78958511352539 44.345497131347656 41.08935546875
C 45.97209548950195 44.762542724609375 42.284019470214844
N 45.39653778076172 45.90892028808594 42.687660217285156
C 39.76651382446289 49.48150634765625 48.55724334716797
C 41.02144241333008 49.902503967285156 48.11042785644531
H 41.52994918823242 50.674095153808594 48.682830810546875
C 41.61357116699219 49.446380615234375 46.93614196777344
H 42.63697052001953 49.68309783935547 46.65650939941406
C 40.82832717895508 48.694374084472656 46.08013153076172
C 39.015045166015625 48.687644958496094 47.70625305175781
H 38.03703308105469 48.306121826171875 47.98822021484375
C 39.517940521240234 48.36430358886719 46.43767547607422
H 38.92201614379883 47.75574493408203 45.76231384277344
N 39.20387649536133 49.893470764160156 49.83140563964844
H 39.195926666259766 50.867286682128906 50.09541320800781
C 38.683860778808594 49.15057373046875 50.79930114746094
O 38.38498306274414 48.000083923339844 50.60193634033203
C 38.51238250732422 49.840576171875 52.14923858642578
C 39.532474517822266 50.591712951660156 52.752967834472656
H 40.49491882324219 50.648292541503906 52.25090789794922
C 39.360145568847656 51.30504608154297 53.95929718017578
C 38.1618537902832 51.01725769042969 54.68163299560547
H 38.02497863769531 51.554779052734375 55.61646270751953
C 37.25035095214844 50.06947326660156 54.16291046142578
H 36.37931442260742 49.836753845214844 54.770118713378906
C 37.43184280395508 49.539642333984375 52.91461181640625
H 36.700279235839844 48.844696044921875 52.51036071777344
C 40.33755874633789 52.127403259277344 54.55180358886719
H 41.18817138671875 52.12916564941406 53.87181854248047
C 40.4240837097168 52.90913391113281 55.65479278564453
H 39.56901168823242 52.91761779785156 56.3291015625
C 41.586666107177734 53.769020080566406 55.97925567626953
C 41.43378829956055 54.56238555908203 57.257774353027344
H 41.25138473510742 55.60655212402344 56.99524688720703
H 42.20487976074219 54.52012634277344 58.02983856201172
H 40.554195404052734 54.179786682128906 57.779701232910156
C 42.67637634277344 53.937294006347656 55.27410125732422
H 42.78910827636719 53.299781799316406 54.3984375
C 43.86493682861328 54.70110321044922 55.55792236328125
H 43.76962661743164 55.324920654296875 56.44544219970703
C 44.93043518066406 54.701393127441406 54.72338104248047
H 44.94374084472656 54.09846496582031 53.816619873046875
C 46.128753662109375 55.56764221191406 54.77989196777344
C 47.21925735473633 55.10627746582031 53.867225646972656
H 48.200401306152344 55.51341247558594 54.120323181152344
H 47.354881286621094 54.026588439941406 53.95856475830078
H 47.03823471069336 55.19525146484375 52.79401397705078
C 46.2988166809082 56.59717559814453 55.649627685546875
H 45.4773063659668 56.739784240722656 56.350128173828125
C 47.490325927734375 57.46833038330078 55.731536865234375
H 48.28921890258789 57.308258056640625 55.008995056152344
C 47.599178314208984 58.450042724609375 56.655609130859375
H 46.77283477783203 58.59186553955078 57.350563049316406
C 48.79339599609375 59.33393096923828 56.73699188232422
H 49.5019416809082 59.34857177734375 55.91014862060547
C 49.24930953979492 60.110321044921875 57.73265838623047
C 48.444766998291016 60.32952117919922 58.985595703125
H 47.66279983520508 61.052215576171875 58.743309020996094
H 47.8798713684082 59.419822692871094 59.199607849121094
H 49.04314422607422 60.721649169921875 59.81060791015625
C 50.368289947509766 60.97901153564453 57.65899658203125
H 50.945106506347656 61.08906555175781 58.57611846923828
C 50.84328842163086 61.58937072753906 56.55244445800781
H 50.31764602661133 61.46495056152344 55.60685729980469
C 52.08253479003906 62.378997802734375 56.41633605957031
H 52.76211166381836 62.220787048339844 57.25243377685547
C 52.41434097290039 63.18013000488281 55.377708435058594
C 51.536720275878906 63.275482177734375 54.21186828613281
H 50.654502868652344 63.868797302246094 54.461143493652344
H 52.030391693115234 63.79468536376953 53.38774871826172
H 51.15524673461914 62.309425354003906 53.874725341796875
C 53.664031982421875 63.899452209472656 55.31123352050781
H 53.74457550048828 64.5438003540039 54.43702697753906
C 54.67100524902344 63.93132781982422 56.19713592529297
H 54.47475051879883 63.414093017578125 57.135154724121094
C 55.99404525756836 64.48596954345703 56.18626403808594
C 56.74403762817383 64.65826416015625 55.02874755859375
C 56.25126647949219 64.36626434326172 53.603004455566406
H 57.0341796875 64.0102310180664 52.930137634277344
H 55.52411651611328 63.553001403808594 53.651145935058594
H 55.66870880126953 65.20063018798828 53.206871032714844
C 58.059165954589844 65.35542297363281 55.02581024169922
H 58.119510650634766 66.14220428466797 54.270965576171875
H 58.846370697021484 64.61567687988281 54.86595153808594
C 58.43463134765625 66.03081512451172 56.357749938964844
H 57.892887115478516 66.9777603149414 56.40534973144531
H 59.50204849243164 66.25553894042969 56.40858459472656
C 57.999629974365234 65.19265747070312 57.577537536621094
H 58.514183044433594 64.24298858642578 57.41680145263672
H 58.27708435058594 65.5445327758789 58.57335662841797
C 56.502254486083984 64.90130615234375 57.56470489501953
C 56.42507553100586 63.84678649902344 58.656944274902344
H 55.429630279541016 63.52635192871094 58.971397399902344
H 56.9797477722168 62.977684020996094 58.297119140625
H 56.95269775390625 64.09577178955078 59.58003234863281
C 55.8161506652832 66.17083740234375 58.05882263183594
H 55.21714401245117 65.90787506103516 58.93318176269531
H 56.54966354370117 66.97248077392578 58.16741943359375
H 55.09672164916992 66.40157318115234 57.27037811279297
