207
Triad, Carotenoid-Porphyrin-C60
C 56.84718704223633 49.41517639160156 35.16874694824219
C 51.45278549194336 52.633079528808594 33.872230529785156
C 53.495426177978516 53.411006927490234 34.384727478027344
C 55.77495193481445 52.69213104248047 34.45707702636719
C 50.45890426635742 50.6110954284668 32.90194320678711
C 50.61214828491211 51.50643539428711 33.94316864013672
C 52.086612701416016 51.82207107543945 31.64261817932129
C 54.5507926940918 52.86595153808594 32.31971740722656
C 56.86985397338867 49.206703186035156 32.97843933105469
C 51.19808578491211 50.7660026550293 31.7175235748291
C 57.06308364868164 50.70706558227539 34.59313201904297
C 51.654293060302734 47.337310791015625 33.68667221069336
C 50.3757209777832 49.35099792480469 33.510921478271484
C 53.92696762084961 46.62877655029297 33.6547966003418
C 55.1888313293457 47.759132385253906 32.027286529541016
C 55.15867233276367 47.01586151123047 33.1691780090332
C 51.71824264526367 48.40120315551758 31.7030086517334
C 53.23996353149414 51.45098114013672 30.947004318237305
C 54.4987678527832 51.94374084472656 31.262266159057617
C 55.41908645629883 49.809844970703125 31.079572677612305
C 53.182559967041016 50.84967041015625 37.76010513305664
C 51.92288589477539 50.26320266723633 37.113548278808594
C 53.31460189819336 52.114715576171875 36.911075592041016
C 52.14081954956055 52.35820770263672 36.1613655090332
C 55.22734451293945 47.13323211669922 35.39798355102539
C 51.844112396240234 48.87504577636719 36.74397277832031
C 56.415164947509766 51.73893737792969 35.28166580200195
C 51.64651870727539 47.38704299926758 35.04558563232422
C 50.47633743286133 49.50325393676758 34.906978607177734
C 53.97410202026367 46.642452239990234 35.053932189941406
C 54.537654876708984 52.387516021728516 36.35881042480469
C 52.82796096801758 47.55543899536133 31.807485580444336
C 54.03780746459961 48.060150146484375 31.347692489624023
C 55.65561294555664 51.12909698486328 31.357419967651367
C 53.08036422729492 50.09965896606445 30.664011001586914
C 54.38798904418945 49.87824249267578 37.833675384521484
C 54.134639739990234 48.52857208251953 37.15762710571289
C 55.563045501708984 50.27346420288086 36.99397277832031
C 55.25437545776367 48.12593078613281 36.44139099121094
C 56.02633285522461 48.84801483154297 31.912771224975586
C 51.28597640991211 51.246124267578125 36.29644012451172
C 55.61838912963867 51.518707275390625 36.41146469116211
C 56.086429595947266 49.217308044433594 36.31291198730469
C 54.586185455322266 53.008201599121094 35.11417770385742
C 55.995418548583984 47.397621154785156 34.25651931762695
C 52.95564651489258 48.00175094604492 36.77592849731445
C 51.06718826293945 48.5125732421875 35.65719223022461
C 52.279911041259766 52.994144439697266 34.930931091308594
C 50.60262680053711 50.86113357543945 35.17560958862305
C 54.20505905151367 49.292945861816406 30.72589683532715
C 52.8304328918457 47.065242767333984 35.75285720825195
C 56.88454055786133 48.49871063232422 34.1199836730957
C 52.217594146728516 52.78013229370117 32.70476531982422
C 53.43925094604492 53.304534912109375 32.99679946899414
C 55.66242599487305 52.48341369628906 33.06941223144531
C 57.021175384521484 50.54864501953125 33.212684631347656
C 50.954524993896484 48.24882507324219 32.89369201660156
C 52.725276947021484 46.89608383178711 32.98067092895508
C 56.3808479309082 51.50395584106445 32.4517936706543
C 51.8428840637207 49.65324783325195 31.118810653686523
C 52.90742111206055 51.29578399658203 39.17236328125
N 53.85964584350586 50.903831481933594 39.9802131652832
C 54.66753005981445 49.85346603393555 39.339534759521484
H 54.2043342590332 48.9602165222168 39.76639175415039
H 55.73652267456055 49.76251220703125 39.548397064208984
C 50.078792572021484 54.06904983520508 40.87273025512695
C 49.6114387512207 52.99726104736328 40.01935577392578
H 48.53829574584961 52.90245819091797 39.87466812133789
C 50.4916877746582 52.08256912231445 39.460880279541016
H 50.12851333618164 51.30547332763672 38.79320526123047
C 51.866390228271484 52.25939178466797 39.72081756591797
C 51.49680709838867 54.18959426879883 41.12104034423828
H 51.83540725708008 54.951377868652344 41.8186149597168
C 52.359317779541016 53.320926666259766 40.512664794921875
H 53.44352340698242 53.39579391479492 40.53398132324219
C 49.138004302978516 55.109474182128906 41.45722579956055
C 47.67097854614258 54.934383392333984 41.30924987792969
C 46.91994094848633 54.775665283203125 40.197208404541016
H 47.37250900268555 54.769283294677734 39.211124420166016
C 45.5516471862793 54.82196044921875 40.552650451660156
H 44.69491958618164 54.666019439697266 39.9054069519043
C 45.443233489990234 54.96699142456055 41.890647888183594
N 46.69240951538086 55.12447738647461 42.3266716003418
H 46.926326751708984 55.23667907714844 43.30381774902344
C 44.33015823364258 55.16792297363281 42.69121551513672
H 43.464839935302734 55.407569885253906 42.07500457763672
C 44.16720962524414 55.40431213378906 44.046173095703125
C 42.91732406616211 55.936500549316406 44.62037658691406
H 41.99441146850586 56.152610778808594 44.0924072265625
C 43.265384674072266 56.14299392700195 45.92927551269531
H 42.6427116394043 56.6063117980957 46.687461853027344
C 44.65671157836914 55.75629425048828 46.1422119140625
N 45.20785903930664 55.33498764038086 44.99031066894531
C 45.402225494384766 55.93916702270508 47.39796447753906
C 46.58231735229492 56.651607513427734 47.406639099121094
C 47.0137825012207 57.8049201965332 48.186683654785156
H 46.534854888916016 58.18073272705078 49.084808349609375
C 48.25144577026367 58.25882339477539 47.65801239013672
H 48.868839263916016 59.0673713684082 48.035240173339844
C 48.63715744018555 57.5085334777832 46.51563262939453
N 47.586856842041016 56.65163803100586 46.43536376953125
H 47.59669876098633 56.01943588256836 45.64647674560547
C 49.54860305786133 57.829898834228516 45.53755187988281
H 50.06731033325195 58.73817443847656 45.84070587158203
C 49.85670852661133 57.288734436035156 44.219329833984375
C 50.73630142211914 57.80644989013672 43.22824478149414
H 51.30874252319336 58.72674560546875 43.279117584228516
C 50.488834381103516 57.056610107421875 42.06106948852539
H 50.96030807495117 57.22390365600586 41.098289489746094
C 49.62797927856445 56.040584564208984 42.36240768432617
N 49.23347091674805 56.21070861816406 43.636940002441406
C 43.73250198364258 54.807159423828125 51.27317810058594
C 45.0153694152832 55.38871383666992 51.14398956298828
H 45.532474517822266 55.4953498840332 52.094146728515625
C 45.508731842041016 55.71592712402344 49.88037109375
H 46.51579666137695 56.12319564819336 49.91938018798828
C 44.81637954711914 55.53563690185547 48.714088439941406
C 43.03129959106445 54.5648078918457 50.10298156738281
H 42.09955978393555 54.02931594848633 50.26634979248047
C 43.54910659790039 54.93109893798828 48.860511779785156
H 42.955204010009766 54.77666473388672 47.963294982910156
N 43.19893264770508 54.436546325683594 52.5606689453125
H 43.87764358520508 54.20063400268555 53.26903533935547
C 42.03464126586914 54.76938247680664 53.040977478027344
O 41.166866302490234 55.22254180908203 52.34009552001953
C 41.88081741333008 54.551265716552734 54.48615264892578
C 42.55515670776367 53.54943084716797 55.16276550292969
H 43.12372970581055 52.75407791137695 54.68768310546875
C 42.35347366333008 53.42141342163086 56.509429931640625
C 41.49626541137695 54.25947570800781 57.19105529785156
H 41.30428695678711 54.127906799316406 58.252845764160156
C 40.906673431396484 55.39017868041992 56.56926727294922
H 40.334293365478516 56.184532165527344 57.04145050048828
C 41.15548324584961 55.55553436279297 55.264739990234375
H 40.749942779541016 56.389278411865234 54.69731140136719
C 42.956974029541016 52.28437423706055 57.18891906738281
H 43.55630874633789 51.65364456176758 56.53401184082031
C 42.88119125366211 51.9048957824707 58.498870849609375
H 42.357357025146484 52.523345947265625 59.226219177246094
C 43.51596450805664 50.74882507324219 59.131004333496094
C 43.55344772338867 50.78367233276367 60.64965057373047
H 43.09193801879883 51.68436813354492 61.05979919433594
H 44.554569244384766 50.63636016845703 61.06016540527344
H 43.15842819213867 49.87908172607422 61.11670684814453
C 44.02363204956055 49.68214416503906 58.529205322265625
H 44.01814651489258 49.7220458984375 57.440948486328125
C 44.49758529663086 48.365501403808594 59.006317138671875
H 44.45510482788086 48.3226203918457 60.09364318847656
C 45.00399398803711 47.328346252441406 58.30291748046875
H 45.0187873840332 47.40352249145508 57.21662139892578
C 45.36137008666992 46.011775970458984 58.834922790527344
C 46.33030319213867 45.16291427612305 58.012908935546875
H 47.26472091674805 44.985958099365234 58.54956817626953
H 45.847782135009766 44.26398468017578 57.62359619140625
H 46.6389274597168 45.81795120239258 57.19551086425781
C 45.01449203491211 45.569210052490234 60.04783630371094
H 44.53147506713867 46.26764678955078 60.72959899902344
C 45.270015716552734 44.26598358154297 60.659515380859375
H 45.77277755737305 43.53892135620117 60.02349090576172
C 44.96442794799805 43.94380187988281 61.878517150878906
H 44.31144332885742 44.59611129760742 62.45646667480469
C 45.42814254760742 42.70301055908203 62.51246643066406
H 46.15827560424805 42.085975646972656 61.9908447265625
C 45.18582534790039 42.259464263916016 63.73339080810547
C 44.29642105102539 43.021541595458984 64.72676849365234
H 44.32101058959961 42.60817337036133 65.7372055053711
H 44.57877731323242 44.0719108581543 64.82405853271484
H 43.30571365356445 43.0539665222168 64.26859283447266
C 45.83713912963867 41.0239372253418 64.2807846069336
H 45.21963119506836 40.50300979614258 65.01101684570312
C 47.06657028198242 40.51998519897461 64.06964874267578
H 47.76967239379883 40.97994613647461 63.3768310546875
C 47.444705963134766 39.20655059814453 64.66175842285156
H 46.65482711791992 38.7937126159668 65.28751373291016
C 48.61359786987305 38.553504943847656 64.60136413574219
C 49.79936599731445 39.016963958740234 63.833526611328125
H 49.6763801574707 38.617794036865234 62.82456970214844
H 49.91348648071289 40.1028938293457 63.81938171386719
H 50.736454010009766 38.63169860839844 64.24083709716797
C 48.90775680541992 37.2901496887207 65.29825592041016
H 49.77621078491211 36.6962890625 65.01713562011719
C 48.120548248291016 36.6111946105957 66.16995239257812
H 47.17476272583008 37.0349006652832 66.50443267822266
C 48.339534759521484 35.219966888427734 66.65665435791016
C 48.393985748291016 34.11256408691406 65.79908752441406
C 48.03536605834961 34.10382080078125 64.32368469238281
H 47.54191207885742 35.04585266113281 64.07559967041016
H 48.88206100463867 34.00136184692383 63.6417236328125
H 47.35149002075195 33.33124923706055 63.966033935546875
C 48.33707809448242 32.70611572265625 66.31050109863281
H 48.89146041870117 32.16156768798828 65.54329681396484
H 47.273807525634766 32.48033142089844 66.20590209960938
C 48.97392654418945 32.53567886352539 67.69212341308594
H 50.027584075927734 32.81456756591797 67.7591323852539
H 48.74689865112305 31.55329132080078 68.1114501953125
C 48.162540435791016 33.510765075683594 68.51414489746094
H 47.09457778930664 33.389373779296875 68.32133483886719
H 48.326358795166016 33.136474609375 69.52682495117188
C 48.45998764038086 35.01323699951172 68.21601104736328
C 47.403987884521484 35.831336975097656 68.95123291015625
H 46.457149505615234 35.73599624633789 68.41563415527344
H 47.19021987915039 35.43586349487305 69.9464111328125
H 47.66740798950195 36.883880615234375 69.07459259033203
C 49.844974517822266 35.36297607421875 68.72724914550781
H 49.967227935791016 36.43547058105469 68.56209564208984
H 50.00917434692383 35.10515213012695 69.77558898925781
H 50.63230514526367 34.80083084106445 68.2207260131836
