207
Triad, Carotenoid-Porphyrin-C60
C 41.929908752441406 53.71812057495117 54.47810745239258
C 48.5523681640625 53.55293655395508 54.02112579345703
C 47.18303680419922 53.57381820678711 55.80231857299805
C 44.950721740722656 53.098060607910156 56.53135681152344
C 48.32609558105469 53.031070709228516 51.722808837890625
C 48.57654571533203 53.96242904663086 52.70684814453125
C 47.989349365234375 51.274269104003906 53.33372497558594
C 46.30821990966797 51.372840881347656 55.57516098022461
C 42.37248229980469 51.57578659057617 53.859710693359375
C 48.1361083984375 51.7003059387207 51.998512268066406
C 42.698822021484375 53.069698333740234 55.490013122558594
C 45.45587921142578 53.67945861816406 49.73659133911133
C 47.617462158203125 53.64902877807617 50.70655822753906
C 43.136741638183594 53.148807525634766 50.23263168334961
C 43.061439514160156 51.14922332763672 51.601680755615234
C 42.470741271972656 52.3956413269043 51.176795959472656
C 46.371124267578125 51.723995208740234 50.18778610229492
C 46.89740753173828 50.390411376953125 53.412986755371094
C 46.14203643798828 50.402549743652344 54.5964241027832
C 44.16804504394531 50.102821350097656 53.202056884765625
C 45.406700134277344 57.03947067260742 54.08890151977539
C 46.27165985107422 56.69633102416992 52.883758544921875
C 46.10559844970703 56.06602096557617 55.10686492919922
C 47.329368591308594 55.62928771972656 54.611900329589844
C 42.147789001464844 54.47196960449219 51.772918701171875
C 45.64213562011719 56.470577239990234 51.70271682739258
C 43.747093200683594 53.75543975830078 56.194576263427734
C 45.266014099121094 54.99537658691406 50.099205017089844
C 47.406402587890625 54.98383331298828 51.0916862487793
C 42.963584899902344 54.48870849609375 50.62091064453125
C 45.41594696044922 55.19002151489258 55.9187126159668
C 44.94982147216797 51.62926483154297 50.142852783203125
C 44.26398468017578 50.843833923339844 51.05238723754883
C 44.730857849121094 50.2210578918457 54.46310043334961
C 46.34242248535156 50.28715896606445 52.117637634277344
C 43.800025939941406 56.91218948364258 54.01267623901367
C 43.318565368652344 56.399566650390625 52.69143295288086
C 43.25202178955078 55.76570510864258 54.9016227722168
C 42.333038330078125 55.3941650390625 52.75190734863281
C 42.977455139160156 50.74870300292969 52.92934799194336
C 47.45027160644531 56.02362823486328 53.265777587890625
C 44.035240173339844 55.07875442504883 55.81483840942383
C 42.30059814453125 55.04267883300781 54.123260498046875
C 45.982948303222656 53.99018096923828 56.336666107177734
C 41.87920379638672 53.16765594482422 52.123878479003906
C 44.20416259765625 56.32675552368164 51.594791412353516
C 46.26313781738281 55.67457580566406 50.780487060546875
C 47.92579650878906 54.39957809448242 54.954811096191406
C 47.990386962890625 55.150909423828125 52.319217681884766
C 44.97388458251953 50.18849182128906 52.02655792236328
C 44.0048828125 55.47282791137695 50.53413772583008
C 41.76624298095703 52.79594039916992 53.45283508300781
C 48.197959899902344 52.24786376953125 54.33784103393555
C 47.36980438232422 52.27326965332031 55.44214630126953
C 45.149864196777344 51.75849151611328 56.14072036743164
C 42.959449768066406 51.725589752197266 55.08041000366211
C 46.66078186035156 53.051761627197266 49.95284652709961
C 44.37493896484375 52.77239990234375 49.73463821411133
C 44.183563232421875 51.076969146728516 55.429176330566406
C 47.087791442871094 51.07604217529297 51.23961639404297
C 45.554962158203125 58.519535064697266 54.43204879760742
N 44.4576416015625 59.21427917480469 54.3764762878418
C 43.23301696777344 58.33576202392578 54.27352523803711
H 42.46302795410156 58.6030158996582 53.5452880859375
H 42.614402770996094 58.23216247558594 55.168643951416016
C 49.257591247558594 60.73418426513672 53.95485305786133
C 49.038482666015625 60.00204849243164 55.1400260925293
H 49.83820343017578 59.81339645385742 55.85166931152344
C 47.867027282714844 59.23815155029297 55.27263259887695
H 47.70558166503906 58.60710906982422 56.14285659790039
C 46.83088684082031 59.29592514038086 54.318172454833984
C 48.159828186035156 60.85300064086914 53.04283142089844
H 48.31184387207031 61.54494094848633 52.21840286254883
C 47.03050231933594 60.09059524536133 53.16788101196289
H 46.1962890625 60.22645568847656 52.4843635559082
C 50.555442810058594 61.45827865600586 53.74671936035156
C 51.69872283935547 61.061153411865234 54.56254196166992
C 52.06989288330078 61.26396179199219 55.81890106201172
H 51.55848693847656 61.93776321411133 56.498374938964844
C 53.35248565673828 60.73672103881836 56.08119583129883
H 53.92266845703125 60.81090545654297 57.00130844116211
C 53.72908020019531 60.16440200805664 54.916996002197266
N 52.73455047607422 60.364585876464844 54.04416275024414
H 52.79150390625 60.05167007446289 53.08449935913086
C 54.9591064453125 59.49675369262695 54.54536819458008
H 55.56803894042969 59.3189811706543 55.43053436279297
C 55.548728942871094 59.14763641357422 53.35216522216797
C 56.70397186279297 58.395851135253906 53.12221145629883
H 57.33660125732422 57.93096160888672 53.871131896972656
C 56.67903137207031 58.142826080322266 51.78012466430664
H 57.40757751464844 57.6265983581543 51.16371536254883
C 55.466796875 58.77373123168945 51.17557144165039
N 54.901390075683594 59.42690658569336 52.20632553100586
C 54.94721984863281 58.8936767578125 49.785850524902344
C 54.66046142578125 60.12823486328125 49.27320861816406
C 54.980987548828125 60.85704803466797 48.10188293457031
H 55.79499816894531 60.61301803588867 47.42729187011719
C 54.21495056152344 62.00233459472656 47.97088623046875
H 54.23938751220703 62.84267807006836 47.28499221801758
C 53.307411193847656 62.00679016113281 49.109378814697266
N 53.60169982910156 60.858314514160156 49.72055435180664
H 53.135345458984375 60.51835632324219 50.5506477355957
C 52.35485076904297 62.91162109375 49.5188102722168
H 52.12713623046875 63.691978454589844 48.794166564941406
C 51.53528594970703 62.931575775146484 50.675960540771484
C 50.59027862548828 63.87284851074219 51.088138580322266
H 50.42218780517578 64.77566528320312 50.51030349731445
C 50.08892059326172 63.3736457824707 52.261207580566406
H 49.326141357421875 63.83256912231445 52.88153076171875
C 50.743804931640625 62.18025207519531 52.52461242675781
N 51.627113342285156 61.94349670410156 51.6298713684082
C 54.536102294921875 55.3807487487793 47.22395324707031
C 54.171043395996094 56.624881744384766 46.76142883300781
H 53.77941131591797 56.6994743347168 45.75017547607422
C 54.37152862548828 57.731468200683594 47.59617614746094
H 53.99247741699219 58.703460693359375 47.291019439697266
C 54.92022705078125 57.70087432861328 48.89170455932617
C 54.94451904296875 55.25981903076172 48.54280090332031
H 55.139930725097656 54.292686462402344 48.9989128112793
C 55.178466796875 56.401485443115234 49.37184143066406
H 55.400367736816406 56.206974029541016 50.41802215576172
N 54.46434020996094 54.26708984375 46.4427604675293
H 54.75818634033203 54.32876205444336 45.47946548461914
C 54.1405029296875 52.92025375366211 46.77800750732422
O 53.90814971923828 52.619483947753906 47.93174743652344
C 53.98101806640625 51.809730529785156 45.681129455566406
C 53.738243103027344 50.52265930175781 46.08985900878906
H 53.45100402832031 50.3358154296875 47.121437072753906
C 53.7020263671875 49.45751953125 45.17280197143555
C 53.906639099121094 49.7893180847168 43.80889892578125
H 53.641746520996094 49.04203796386719 43.06528091430664
C 54.13288879394531 51.122291564941406 43.39060592651367
H 54.24732208251953 51.33888244628906 42.331565856933594
C 54.138404846191406 52.120548248291016 44.32688522338867
H 54.35681915283203 53.147151947021484 44.044124603271484
C 53.19263458251953 48.092559814453125 45.65751266479492
H 53.04039001464844 48.045166015625 46.73477554321289
C 52.89215087890625 46.95143127441406 44.994754791259766
H 52.92693328857422 46.955726623535156 43.90631866455078
C 52.56681823730469 45.66941452026367 45.55556869506836
C 53.03321838378906 45.390071868896484 46.95654296875
H 53.23578643798828 44.3344841003418 47.14929962158203
H 52.45201873779297 45.76847839355469 47.80004119873047
H 54.0333251953125 45.813560485839844 47.070125579833984
C 51.90270233154297 44.72482681274414 44.81155776977539
H 51.70793151855469 44.95791244506836 43.765777587890625
C 51.50901794433594 43.41587829589844 45.26704406738281
H 51.536285400390625 43.26896286010742 46.34574508666992
C 51.148216247558594 42.346717834472656 44.52767562866211
H 51.087059020996094 42.52404022216797 43.454952239990234
C 50.833404541015625 40.9681396484375 44.97370147705078
C 51.260467529296875 40.50299072265625 46.31676483154297
H 51.48271179199219 39.44187545776367 46.18595504760742
H 52.12663269042969 41.0815544128418 46.64460372924805
H 50.44087219238281 40.6770133972168 47.017086029052734
C 50.184852600097656 40.16090393066406 44.11283874511719
H 50.05840301513672 40.567237854003906 43.11042404174805
C 49.71070861816406 38.77820587158203 44.295204162597656
H 50.058380126953125 38.21693420410156 45.1612434387207
C 48.803245544433594 38.26021957397461 43.460105895996094
H 48.4168701171875 38.903865814208984 42.67121124267578
C 48.28404235839844 36.93827438354492 43.575984954833984
H 48.91773986816406 36.2422981262207 44.12367248535156
C 47.236480712890625 36.39231872558594 42.91475296020508
C 46.33525085449219 37.214786529541016 42.024635314941406
H 46.772857666015625 37.30951690673828 41.028648376464844
H 45.355308532714844 36.798709869384766 41.78162384033203
H 46.17046356201172 38.193538665771484 42.4799919128418
C 46.725364685058594 35.10842514038086 43.21364974975586
H 46.92955780029297 34.69971466064453 44.202178955078125
C 46.140464782714844 34.31871032714844 42.27501678466797
H 45.965721130371094 34.61234664916992 41.24101257324219
C 45.818519592285156 32.881507873535156 42.55763626098633
H 45.95708465576172 32.54631805419922 43.5844612121582
C 45.49920654296875 31.9111385345459 41.65825271606445
C 45.26457214355469 32.227317810058594 40.15729904174805
H 44.686859130859375 33.15228271484375 40.10120391845703
H 46.22113037109375 32.348331451416016 39.6446418762207
H 44.5714111328125 31.52679443359375 39.686912536621094
C 45.3831787109375 30.52692413330078 42.091800689697266
H 45.21754455566406 30.466894149780273 43.16645431518555
C 45.533241271972656 29.393138885498047 41.356658935546875
H 45.86061096191406 29.507247924804688 40.32431411743164
C 45.427978515625 27.910903930664062 41.72465515136719
C 44.558143615722656 27.42987060546875 42.68668746948242
C 43.59101104736328 28.275270462036133 43.44582748413086
H 44.020423889160156 28.707889556884766 44.351863861083984
H 43.17499542236328 29.0122013092041 42.75566101074219
H 42.798095703125 27.5802059173584 43.72978973388672
C 44.298675537109375 25.982398986816406 42.93842697143555
H 43.21979522705078 25.825481414794922 43.000553131103516
H 44.7645263671875 25.660999298095703 43.872318267822266
C 44.700660705566406 25.057979583740234 41.74209976196289
H 44.04296875 25.174903869628906 40.87824630737305
H 44.59025573730469 23.988121032714844 41.93098449707031
C 46.160728454589844 25.453636169433594 41.38446044921875
H 46.78992462158203 25.58521270751953 42.2672233581543
H 46.634429931640625 24.763534545898438 40.68315124511719
C 46.15293884277344 26.860458374023438 40.74222946166992
C 47.57493591308594 27.305740356445312 40.51387405395508
H 48.11279296875 27.157459259033203 41.45258712768555
H 47.96824645996094 26.649574279785156 39.73462677001953
H 47.63813018798828 28.36113929748535 40.240745544433594
C 45.51465606689453 26.781402587890625 39.38901901245117
H 44.42804718017578 26.673095703125 39.391845703125
H 45.709999084472656 27.711105346679688 38.85054016113281
H 45.93024444580078 25.933868408203125 38.839988708496094
