207
Triad, Carotenoid-Porphyrin-C60
C 37.85478973388672 32.80271911621094 53.79279327392578
C 43.84086990356445 35.32931137084961 54.36568069458008
C 42.002201080322266 35.493194580078125 55.72138977050781
C 39.9796028137207 34.31897735595703 56.25753402709961
C 44.58903121948242 33.868839263916016 52.63066101074219
C 44.17927169799805 35.15034484863281 53.03290939331055
C 44.29060745239258 32.95875930786133 54.868003845214844
C 42.047000885009766 33.182220458984375 56.54892349243164
C 39.054744720458984 30.9373779296875 54.36296081542969
C 44.65963363647461 32.79285430908203 53.55256271362305
C 38.273197174072266 32.97182083129883 55.142242431640625
C 42.454105377197266 32.350669860839844 50.121620178222656
C 44.09969711303711 33.69365310668945 51.35789108276367
C 40.35361862182617 31.208955764770508 50.466766357421875
C 40.48091506958008 30.0113525390625 52.64271545410156
C 39.77846908569336 30.630170822143555 51.619911193847656
C 43.634281158447266 31.42245101928711 51.81296157836914
C 43.58626937866211 31.85822868347168 55.2685546875
C 42.44417953491211 31.95680046081543 56.089622497558594
C 41.284053802490234 30.242578506469727 54.74653244018555
C 39.963199615478516 36.77998352050781 52.31704330444336
C 41.162410736083984 36.350643157958984 51.53841781616211
C 40.54269790649414 36.73752212524414 53.72856140136719
C 41.91495895385742 36.66070556640625 53.66599655151367
C 38.63473892211914 32.43543243408203 51.07563400268555
C 41.11385726928711 35.541595458984375 50.447818756103516
C 38.7560920715332 34.22569274902344 55.498329162597656
C 41.77212142944336 33.482704162597656 49.76249313354492
C 43.451725006103516 34.87969207763672 50.94541549682617
C 39.68027877807617 32.37034225463867 50.16635513305664
C 39.89719772338867 36.106849670410156 54.81832504272461
C 42.52058029174805 30.712671279907227 51.566314697265625
C 41.853694915771484 30.09865379333496 52.58625411987305
C 41.28842544555664 31.140914916992188 55.8328742980957
C 43.546321868896484 30.97020721435547 54.19279861450195
C 38.67776107788086 36.001705169677734 52.09980773925781
C 38.88447952270508 34.87370681762695 51.09268569946289
C 38.19424819946289 35.16334915161133 53.32649230957031
C 38.2315559387207 33.72183609008789 51.524967193603516
C 40.15208053588867 30.118270874023438 53.980072021484375
C 42.342044830322266 36.515682220458984 52.326175689697266
C 38.70085525512695 35.368675231933594 54.632110595703125
C 37.83989715576172 33.8984489440918 52.91954803466797
C 40.65140151977539 35.499473571777344 55.84069061279297
C 38.671504974365234 31.397123336791992 52.00181579589844
C 40.00468826293945 34.78611373901367 50.200035095214844
C 42.26353073120117 34.742733001708984 50.231788635253906
C 42.7049674987793 36.11611557006836 54.682498931884766
C 43.47846603393555 35.75358581542969 52.036685943603516
C 42.358699798583984 30.23185157775879 53.87147521972656
C 40.38686752319336 33.55954360961914 49.83769607543945
C 38.313777923583984 31.60580062866211 53.349891662597656
C 43.87032699584961 34.26767349243164 55.29650115966797
C 42.763431549072266 34.37516784667969 56.168331146240234
C 40.65237045288086 33.19755172729492 56.5931282043457
C 39.0496940612793 31.81122398376465 55.45280456542969
C 43.5767936706543 32.48120880126953 50.985816955566406
C 41.74630355834961 31.244787216186523 50.49555587768555
C 40.20000076293945 31.914628982543945 56.18227767944336
C 44.2046012878418 31.561677932739258 53.11208724975586
C 39.52836990356445 38.206241607666016 51.876766204833984
N 38.26124954223633 38.3341178894043 51.649009704589844
C 37.607826232910156 37.00395584106445 51.60340118408203
H 37.134033203125 36.736629486083984 50.655399322509766
H 36.83525085449219 36.961708068847656 52.37541198730469
C 41.74948501586914 41.741676330566406 52.92666244506836
C 42.29670333862305 40.77459716796875 52.114418029785156
H 43.36653518676758 40.78677749633789 51.92234802246094
C 41.6683464050293 39.572818756103516 51.73210144042969
H 42.175113677978516 38.82798385620117 51.12384796142578
C 40.32529830932617 39.399349212646484 52.11859893798828
C 40.354557037353516 41.60829544067383 53.24799728393555
H 39.86830520629883 42.42833709716797 53.77016067504883
C 39.7800407409668 40.35246658325195 52.91673278808594
H 38.78739547729492 40.1064453125 53.28511047363281
C 42.49916458129883 42.96470642089844 53.30364990234375
C 43.848323822021484 43.145408630371094 52.748504638671875
C 45.05014419555664 42.5004997253418 52.954044342041016
H 45.16434097290039 41.61807632446289 53.57493591308594
C 45.98533248901367 42.992767333984375 52.02234649658203
H 47.0001106262207 42.660369873046875 51.83009338378906
C 45.37416458129883 44.065189361572266 51.38175582885742
N 44.12529373168945 44.1290283203125 51.87039566040039
H 43.42192459106445 44.72873306274414 51.4608268737793
C 45.783267974853516 44.905555725097656 50.30908203125
H 46.51005172729492 44.53512954711914 49.58763122558594
C 45.411434173583984 46.21073913574219 50.19776153564453
C 45.259159088134766 46.91295623779297 48.948890686035156
H 45.38874435424805 46.448089599609375 47.97711944580078
C 44.79617691040039 48.143733978271484 49.320438385009766
H 44.5534553527832 48.929718017578125 48.61294937133789
C 44.6638298034668 48.18508529663086 50.71921920776367
N 44.893795013427734 46.97212219238281 51.236812591552734
C 44.192874908447266 49.30428695678711 51.53662109375
C 43.07822799682617 49.28428268432617 52.31837844848633
C 42.08786392211914 50.24764633178711 52.751991271972656
H 42.12675094604492 51.301185607910156 52.49553298950195
C 41.393733978271484 49.717533111572266 53.75093460083008
H 40.5943717956543 50.179813385009766 54.320621490478516
C 41.57010269165039 48.30829620361328 53.84071731567383
N 42.50432205200195 48.15623092651367 52.920108795166016
H 42.77983474731445 47.20205307006836 52.731021881103516
C 41.01572799682617 47.40474319458008 54.696876525878906
H 40.30342483520508 47.85294723510742 55.38800048828125
C 41.278072357177734 45.96995162963867 54.803627014160156
C 40.760196685791016 45.032867431640625 55.75115203857422
H 40.2714729309082 45.21095275878906 56.70333480834961
C 41.266300201416016 43.88075637817383 55.296607971191406
H 41.117794036865234 42.95396423339844 55.840877532958984
C 41.90517044067383 44.01152038574219 54.10200500488281
N 41.96432876586914 45.310855865478516 53.87534713745117
C 47.00486373901367 52.679115295410156 51.957733154296875
C 45.77816390991211 52.66848373413086 52.55308532714844
H 45.393123626708984 53.50251770019531 53.13420486450195
C 44.85896682739258 51.60690689086914 52.363548278808594
H 43.981204986572266 51.68198013305664 53.00032043457031
C 45.1555061340332 50.44538879394531 51.624717712402344
C 47.33803939819336 51.589324951171875 51.148319244384766
H 48.277400970458984 51.53816604614258 50.60374450683594
C 46.44350051879883 50.50847625732422 50.957969665527344
H 46.6262092590332 49.608428955078125 50.376502990722656
N 47.84590530395508 53.81120300292969 52.20243835449219
H 47.65481948852539 54.12758255004883 53.14130783081055
C 48.9453239440918 54.21928405761719 51.5481071472168
O 49.23373794555664 53.74654006958008 50.44532775878906
C 49.8390007019043 55.13909149169922 52.280181884765625
C 50.6557731628418 55.9324951171875 51.47507095336914
H 50.471492767333984 55.85570526123047 50.406558990478516
C 51.4846305847168 56.91386413574219 52.091880798339844
C 51.58358383178711 57.055477142333984 53.44549560546875
H 52.27194595336914 57.738136291503906 53.9371223449707
C 50.81680679321289 56.203819274902344 54.26569747924805
H 50.94443893432617 56.35184860229492 55.33498001098633
C 50.039005279541016 55.179691314697266 53.659095764160156
H 49.5234489440918 54.4953727722168 54.328033447265625
C 52.24958419799805 57.85276794433594 51.249542236328125
H 52.08047866821289 57.66301345825195 50.19062042236328
C 53.0236930847168 58.90190505981445 51.61347579956055
H 53.01166915893555 59.247657775878906 52.646060943603516
C 53.792423248291016 59.73834991455078 50.787845611572266
C 54.098392486572266 61.07465362548828 51.4935417175293
H 53.92488479614258 61.89236831665039 50.79090118408203
H 55.07883071899414 61.04112243652344 51.97321319580078
H 53.396121978759766 61.24404525756836 52.312435150146484
C 54.10349655151367 59.57893753051758 49.518836975097656
H 53.76316452026367 58.60251235961914 49.177242279052734
C 54.903011322021484 60.445228576660156 48.744380950927734
H 55.344669342041016 61.29635238647461 49.26056671142578
C 55.19972610473633 60.277462005615234 47.44956970214844
H 54.8366813659668 59.34653854370117 47.016544342041016
C 56.097721099853516 61.003684997558594 46.58135223388672
C 57.116947174072266 61.85531234741211 47.14968490600586
H 56.686283111572266 62.83908462524414 47.347625732421875
H 57.51022720336914 61.511558532714844 48.10865783691406
H 58.00690841674805 62.01066589355469 46.5362548828125
C 55.93404006958008 60.903404235839844 45.291961669921875
H 55.09465408325195 60.27555465698242 44.996742248535156
C 56.84621810913086 61.34367370605469 44.1806526184082
H 57.41716384887695 62.244503021240234 44.400760650634766
C 56.96609878540039 60.693565368652344 42.98704528808594
H 56.508670806884766 59.7135124206543 42.859832763671875
C 57.77366256713867 61.139076232910156 41.8370246887207
H 58.53303146362305 61.870094299316406 42.11069869995117
C 57.83523178100586 60.71342086791992 40.56995391845703
C 56.805233001708984 59.75735092163086 40.031158447265625
H 55.8643913269043 59.79800033569336 40.58399200439453
H 56.5774040222168 60.00384521484375 38.99202346801758
H 57.281673431396484 58.77613067626953 39.97938919067383
C 58.85752487182617 61.1611213684082 39.62776565551758
H 58.697383880615234 60.762081146240234 38.62723922729492
C 59.79726028442383 62.121429443359375 39.72392272949219
H 59.984615325927734 62.60359191894531 40.682220458984375
C 60.676578521728516 62.50387954711914 38.688873291015625
H 61.14216232299805 61.65507888793945 38.190185546875
C 61.139095306396484 63.70760726928711 38.408119201660156
C 60.65788650512695 64.96565246582031 39.14523696899414
H 60.44626998901367 65.74871063232422 38.41414260864258
H 59.77347946166992 64.75468444824219 39.75004196166992
H 61.4019660949707 65.47303771972656 39.762779235839844
C 62.223445892333984 63.95979309082031 37.449520111083984
H 62.7297477722168 63.061222076416016 37.10002136230469
C 62.70796585083008 65.15167999267578 37.05523681640625
H 62.23844528198242 66.08223724365234 37.37071990966797
C 63.66353225708008 65.4401626586914 35.986778259277344
C 64.98582458496094 65.2628402709961 36.08940505981445
C 65.74970245361328 64.8106689453125 37.239959716796875
H 66.31395721435547 65.62841796875 37.69313430786133
H 64.99124908447266 64.60518646240234 37.99824142456055
H 66.39283752441406 63.93064498901367 37.173526763916016
C 65.90390014648438 65.47552490234375 34.90650177001953
H 65.94808959960938 64.47086334228516 34.48085403442383
H 66.93108367919922 65.70549774169922 35.19713592529297
C 65.41339874267578 66.65916442871094 34.05707931518555
H 66.0031967163086 66.72090911865234 33.140132904052734
H 65.51664733886719 67.61878204345703 34.56789016723633
C 64.01042938232422 66.30755615234375 33.541053771972656
H 63.6563606262207 67.10403442382812 32.88323974609375
H 64.04439544677734 65.41349029541016 32.914974212646484
C 63.06222152709961 66.05607604980469 34.679569244384766
C 62.39187240600586 67.43367004394531 34.92860412597656
H 61.5949821472168 67.28162384033203 35.65957260131836
H 63.09511184692383 68.08524322509766 35.45144271850586
H 62.12356185913086 68.00798034667969 34.03942108154297
C 61.882564544677734 65.23486328125 34.17380905151367
H 62.14912033081055 64.18048095703125 34.272220611572266
H 60.980098724365234 65.37845611572266 34.771644592285156
H 61.619197845458984 65.42891693115234 33.131961822509766
