207
Triad, Carotenoid-Porphyrin-C60
C 46.91449737548828 37.501792907714844 36.2127571105957
C 46.91948699951172 41.76568603515625 41.13512420654297
C 48.68149185180664 40.54586410522461 40.315773010253906
C 49.18525695800781 39.31632995605469 38.2834358215332
C 44.73561477661133 42.63291549682617 40.5013313293457
C 45.51009750366211 41.81758117675781 41.32402420043945
C 46.70979690551758 43.236083984375 39.22808074951172
C 48.762020111083984 41.72653579711914 38.26514434814453
C 46.768043518066406 39.454227447509766 35.234214782714844
C 45.32769775390625 43.26944351196289 39.42457580566406
C 48.119258880615234 38.16398620605469 36.434547424316406
C 42.35538864135742 40.72842788696289 38.4095458984375
C 43.52131652832031 41.91685104370117 40.250091552734375
C 43.04986572265625 39.56901550292969 36.34170913696289
C 44.73695755004883 40.72263717651367 35.1646842956543
C 44.06171417236328 39.55400466918945 35.46065139770508
C 43.521026611328125 42.5638427734375 37.9172248840332
C 46.9243049621582 43.2401123046875 37.84202194213867
C 47.9820556640625 42.51150131225586 37.36175537109375
C 46.626434326171875 41.89787673950195 35.515464782714844
C 45.99201965332031 37.181217193603516 40.91035079956055
C 44.930118560791016 38.26203918457031 41.21375274658203
C 47.19001007080078 38.186344146728516 40.840049743652344
C 46.83556365966797 39.37055969238281 41.44623947143555
C 44.15389633178711 37.60753631591797 36.54249572753906
C 43.72093963623047 38.33725357055664 40.492488861083984
C 48.690425872802734 38.163665771484375 37.72190475463867
C 42.47809982299805 39.554168701171875 39.11058807373047
C 43.62488555908203 40.69432067871094 40.89759826660156
C 43.10186767578125 38.366851806640625 37.07464599609375
C 48.25983810424805 38.15926742553711 39.97262191772461
C 43.366939544677734 41.89849853515625 36.761356353759766
C 44.3925895690918 41.889217376708984 35.81116485595703
C 47.82208251953125 41.81047439575195 36.20463943481445
C 45.69129943847656 43.29774475097656 37.218505859375
C 45.871116638183594 36.34975051879883 39.61463165283203
C 44.64352035522461 36.78548812866211 38.7964973449707
C 46.970481872558594 36.679847717285156 38.53714370727539
C 44.96673583984375 36.825416564941406 37.408714294433594
C 46.13361740112305 40.69098663330078 35.02241134643555
C 45.517852783203125 39.41057205200195 41.72461700439453
C 48.097900390625 37.46021270751953 38.77456283569336
C 46.35103988647461 36.827239990234375 37.28974151611328
C 48.981727600097656 39.347389221191406 39.70061492919922
C 44.716793060302734 38.31126022338867 35.54330062866211
C 43.59465026855469 37.55980682373047 39.299251556396484
C 43.01713943481445 39.52629089355469 40.36824417114258
C 47.638710021972656 40.55177688598633 41.24474334716797
C 44.80778503417969 40.64822006225586 41.5739860534668
C 45.539398193359375 42.57686233520508 36.055877685546875
C 42.78004837036133 38.390018463134766 38.44882583618164
C 46.09242248535156 38.28828048706055 35.37028121948242
C 47.57444381713867 42.52289581298828 40.16078186035156
C 48.62022399902344 41.783451080322266 39.63627624511719
C 49.085845947265625 40.59239959716797 37.572696685791016
C 48.035736083984375 39.39944076538086 35.75566864013672
C 42.94651794433594 41.88039016723633 38.933998107910156
C 42.5706787109375 40.74965286254883 36.975826263427734
C 48.5076904296875 40.63528823852539 36.30963897705078
C 44.72858810424805 43.22950744628906 38.191837310791016
C 46.105525970458984 36.10984420776367 41.93830108642578
N 46.044281005859375 34.93305587768555 41.534488677978516
C 45.878108978271484 34.86174774169922 40.06504440307617
H 44.88979721069336 34.43043518066406 39.88656997680664
H 46.67888259887695 34.233619689941406 39.66645431518555
C 46.23350524902344 37.4289436340332 46.007930755615234
C 47.40755844116211 37.15885543823242 45.32048416137695
H 48.37629699707031 37.401954650878906 45.749454498291016
C 47.37163162231445 36.67120361328125 44.03789138793945
H 48.238494873046875 36.471221923828125 43.413291931152344
C 46.17998504638672 36.516563415527344 43.33163070678711
C 45.04669952392578 37.319332122802734 45.28005599975586
H 44.097862243652344 37.654083251953125 45.69142532348633
C 44.9813117980957 36.86408996582031 43.98643112182617
H 44.07062530517578 36.76219940185547 43.401763916015625
C 46.16708755493164 37.81776809692383 47.49295425415039
C 47.426361083984375 37.92228317260742 48.20863723754883
C 48.597015380859375 37.18667984008789 48.32271957397461
H 48.7949333190918 36.295047760009766 47.73701858520508
C 49.533451080322266 37.89313888549805 49.172428131103516
H 50.52129364013672 37.471923828125 49.3272590637207
C 48.94624710083008 39.095279693603516 49.50150680541992
N 47.705833435058594 39.12092590332031 48.863285064697266
H 47.01240921020508 39.83811950683594 49.027347564697266
C 49.39112854003906 40.249149322509766 50.323673248291016
H 50.27581787109375 40.093692779541016 50.93936538696289
C 48.773406982421875 41.39700698852539 50.506832122802734
C 49.06614303588867 42.250877380371094 51.58255386352539
H 49.833030700683594 42.186187744140625 52.347354888916016
C 48.10655975341797 43.2476921081543 51.665164947509766
H 47.98837661743164 44.03704071044922 52.400142669677734
C 47.18724060058594 42.91089630126953 50.613346099853516
N 47.68360900878906 41.86968994140625 49.85060501098633
C 45.92076110839844 43.59425735473633 50.388118743896484
C 44.67958068847656 42.97947692871094 50.59980392456055
C 43.65460968017578 43.23809814453125 51.54330825805664
H 43.584007263183594 44.10753631591797 52.188541412353516
C 42.67912673950195 42.24553680419922 51.46480941772461
H 41.71994400024414 42.15724563598633 51.96420669555664
C 43.14078140258789 41.24558639526367 50.510684967041016
N 44.265201568603516 41.82383346557617 50.06630325317383
H 44.75294876098633 41.33549118041992 49.32755661010742
C 42.65546798706055 40.05030059814453 50.10932540893555
H 41.73011779785156 39.79356002807617 50.62287521362305
C 43.318729400634766 38.99470138549805 49.22940444946289
C 42.96923828125 37.651039123535156 48.87784194946289
H 42.059326171875 37.157981872558594 49.20369338989258
C 43.972721099853516 37.1052360534668 48.1539192199707
H 44.02405548095703 36.05168151855469 47.89973831176758
C 44.9642448425293 38.06978988647461 48.05905532836914
N 44.547813415527344 39.24630355834961 48.59238815307617
C 45.91051483154297 47.523250579833984 48.68916702270508
C 44.677757263183594 46.895912170410156 49.00009536743164
H 43.737152099609375 47.422691345214844 48.86101150512695
C 44.68110656738281 45.57645797729492 49.486209869384766
H 43.729557037353516 45.10970687866211 49.727596282958984
C 45.90662384033203 44.927467346191406 49.70112228393555
C 47.11743927001953 46.8306770324707 48.69900131225586
H 48.015316009521484 47.36087417602539 48.39194869995117
C 47.094573974609375 45.56489181518555 49.28351974487305
H 47.981292724609375 44.95340347290039 49.429744720458984
N 45.92816162109375 48.90779495239258 48.35695266723633
H 45.09254837036133 49.129302978515625 47.83659744262695
C 46.54358673095703 49.90804672241211 49.035152435302734
O 47.24509811401367 49.6461181640625 49.999027252197266
C 46.30309295654297 51.29092788696289 48.51054000854492
C 46.508548736572266 52.382041931152344 49.35749435424805
H 46.79130554199219 52.23439407348633 50.39664077758789
C 46.39678192138672 53.672306060791016 48.89894485473633
C 46.02429962158203 53.94289016723633 47.602054595947266
H 46.03996276855469 54.97734451293945 47.268550872802734
C 45.64459228515625 52.86398696899414 46.73027420043945
H 45.249229431152344 53.07976531982422 45.74098587036133
C 45.81988525390625 51.52573013305664 47.18709945678711
H 45.78236389160156 50.6685676574707 46.51969528198242
C 46.67167663574219 54.77511215209961 49.89738082885742
H 47.01205825805664 54.400089263916016 50.8614387512207
C 46.76118469238281 56.1517448425293 49.769710540771484
H 46.509063720703125 56.5782356262207 48.7999382019043
C 47.32465744018555 57.01797103881836 50.841434478759766
C 46.84796142578125 56.86299514770508 52.247684478759766
H 46.03514862060547 56.13468551635742 52.21073532104492
H 46.47654724121094 57.863529205322266 52.47885513305664
H 47.51045227050781 56.36196517944336 52.95658493041992
C 48.23172378540039 57.95705795288086 50.5617790222168
H 48.584468841552734 58.10731887817383 49.54250717163086
C 49.061466217041016 58.725521087646484 51.47951889038086
H 48.979618072509766 58.4614143371582 52.5328254699707
C 50.03801727294922 59.613643646240234 51.15806198120117
H 50.25785827636719 59.76206588745117 50.10185623168945
C 50.88447570800781 60.32082748413086 52.11135482788086
C 52.03525924682617 61.01552963256836 51.39976119995117
H 52.723995208740234 60.22663497924805 51.090328216552734
H 51.53822326660156 61.53834915161133 50.579959869384766
H 52.582786560058594 61.72238540649414 52.026676177978516
C 50.642555236816406 60.45442581176758 53.3995246887207
H 49.68396759033203 60.118465423583984 53.792179107666016
C 51.458946228027344 61.05745315551758 54.43290328979492
H 52.462677001953125 61.28083419799805 54.07437515258789
C 51.07028579711914 61.21060562133789 55.72983169555664
H 50.10980224609375 60.87508010864258 56.1181755065918
C 52.01676940917969 61.72445297241211 56.76028823852539
H 53.02859878540039 61.92705154418945 56.41232681274414
C 51.829193115234375 62.19398880004883 57.98024368286133
C 50.464683532714844 62.05293655395508 58.65805435180664
H 49.82581329345703 62.89987564086914 58.39920425415039
H 50.007816314697266 61.09567642211914 58.39845657348633
H 50.64390563964844 62.017642974853516 59.73466110229492
C 52.76129150390625 62.975826263427734 58.66352462768555
H 52.3681755065918 63.73918533325195 59.33335494995117
C 54.11126708984375 62.8799934387207 58.57564926147461
H 54.53628158569336 62.1302375793457 57.90995407104492
C 55.071895599365234 63.5894889831543 59.42988204956055
H 54.57631301879883 64.14093017578125 60.22751998901367
C 56.424339294433594 63.738765716552734 59.345516204833984
C 57.19127655029297 63.146732330322266 58.22429275512695
H 56.9945182800293 62.0734748840332 58.18122482299805
H 56.854225158691406 63.5549430847168 57.26919174194336
H 58.26313018798828 63.35349655151367 58.25333023071289
C 57.175941467285156 64.24934387207031 60.45900344848633
H 58.25406265258789 64.10100555419922 60.41941452026367
C 56.73256301879883 65.02435302734375 61.44674301147461
H 55.656044006347656 65.12681579589844 61.575313568115234
C 57.59990692138672 65.65837097167969 62.47697067260742
C 58.2249755859375 66.84500122070312 62.21651077270508
C 57.95279312133789 67.67169189453125 60.95425033569336
H 58.408180236816406 67.3285140991211 60.022953033447266
H 56.89034652709961 67.47314453125 60.798519134521484
H 58.120819091796875 68.7496337890625 61.0020637512207
C 59.16633224487305 67.60702514648438 63.135433197021484
H 58.584686279296875 68.42405700683594 63.56741714477539
H 59.932342529296875 68.14623260498047 62.57423782348633
C 59.766632080078125 66.69467163085938 64.14361572265625
H 60.26967239379883 67.2945785522461 64.90489196777344
H 60.4720573425293 66.0689697265625 63.59286880493164
C 58.7042236328125 65.87742614746094 64.81331634521484
H 59.18250274658203 65.2825927734375 65.59426879882812
H 58.003082275390625 66.57754516601562 65.27233123779297
C 57.967002868652344 64.98374938964844 63.82987594604492
C 58.75896072387695 63.73117446899414 63.5034294128418
H 58.27812194824219 62.98544692993164 62.86692428588867
H 59.73044967651367 63.97793960571289 63.07009506225586
H 58.9661865234375 63.20857620239258 64.43959045410156
C 56.754669189453125 64.45886993408203 64.53739166259766
H 56.1604118347168 65.3244857788086 64.83741760253906
H 56.19639587402344 63.726139068603516 63.95097732543945
H 57.01199722290039 64.00425720214844 65.496337890625
