207
Triad, Carotenoid-Porphyrin-C60
C 31.303861618041992 48.74827194213867 54.668190002441406
C 36.415184020996094 45.27900695800781 56.114620208740234
C 35.48298645019531 47.01901626586914 57.191097259521484
C 33.46150207519531 48.217872619628906 57.438079833984375
C 35.81195831298828 43.59791946411133 54.56669998168945
C 36.52157974243164 44.72356033325195 54.88033676147461
C 34.65069580078125 43.69346618652344 56.6832160949707
C 33.55622863769531 45.87800598144531 58.08972930908203
C 30.274213790893555 46.8890380859375 55.40835952758789
C 34.79389190673828 43.09699630737305 55.43799591064453
C 31.55070686340332 48.69480514526367 56.066009521484375
C 33.51443099975586 44.14958572387695 51.86384201049805
C 35.48084259033203 43.6546516418457 53.207550048828125
C 31.39002799987793 45.31663513183594 51.960906982421875
C 30.335660934448242 44.93963623046875 54.06214141845703
C 30.521738052368164 45.74607849121094 52.908939361572266
C 33.24074172973633 42.8647346496582 53.61676788330078
C 33.33134841918945 43.665592193603516 57.02829360961914
C 32.782955169677734 44.77338409423828 57.681217193603516
C 30.835508346557617 44.70246124267578 56.22098922729492
C 35.84653854370117 49.07283020019531 53.55104446411133
C 36.30311584472656 47.72871017456055 52.922279357910156
C 35.964942932128906 48.7125244140625 54.9605712890625
C 36.638771057128906 47.4794807434082 55.09019470214844
C 31.56546974182129 47.55056381225586 52.136112213134766
C 35.49312973022461 47.03725814819336 51.993560791015625
C 32.83201599121094 49.02821350097656 56.522220611572266
C 34.167762756347656 45.28757858276367 51.382015228271484
C 36.055015563964844 44.80337142944336 52.77236557006836
C 32.027652740478516 46.44611740112305 51.45869827270508
C 34.986061096191406 49.001773834228516 55.930686950683594
C 31.993898391723633 43.375755310058594 53.28654098510742
C 31.081960678100586 43.73143768310547 54.226165771484375
C 31.55833625793457 45.3204231262207 57.26557540893555
C 32.63288497924805 43.13895797729492 55.95812225341797
C 34.42533493041992 49.61175537109375 53.07865905761719
C 33.69081115722656 48.73405838012695 52.088417053222656
C 33.4191780090332 49.76295471191406 54.257808685302734
C 32.40462875366211 48.608333587646484 52.52186965942383
C 30.191530227661133 45.46779251098633 55.30263137817383
C 36.874202728271484 46.85361862182617 53.86288070678711
C 33.74995422363281 49.483551025390625 55.586509704589844
C 32.232940673828125 49.24777603149414 53.79737854003906
C 34.75503158569336 48.205467224121094 57.01016616821289
C 30.612653732299805 47.14866638183594 53.029083251953125
C 34.25440979003906 47.503379821777344 51.590213775634766
C 35.445125579833984 45.64970397949219 51.832244873046875
C 36.405433654785156 46.68516159057617 56.19681930541992
C 36.65948486328125 45.47748947143555 53.78404998779297
C 31.39253044128418 43.6063117980957 55.571441650390625
C 33.40839767456055 46.45142364501953 51.19027328491211
C 30.480207443237305 47.67598342895508 54.27573776245117
C 35.46955490112305 44.79556655883789 57.025299072265625
C 34.936767578125 45.87333679199219 57.728145599365234
C 32.85615921020508 47.06215286254883 57.88144302368164
C 30.988378524780273 47.46641540527344 56.44417190551758
C 34.18892288208008 43.304656982421875 52.737606048583984
C 32.16695785522461 44.2055549621582 52.18721389770508
C 31.615968704223633 46.68436813354492 57.4227180480957
C 33.58333206176758 42.74155044555664 54.986480712890625
C 36.84313201904297 50.174556732177734 53.17266845703125
N 36.27950668334961 51.151546478271484 52.59431457519531
C 34.83195877075195 50.980220794677734 52.42245864868164
H 34.56377029418945 50.88300323486328 51.367340087890625
H 34.34052276611328 51.881553649902344 52.797603607177734
C 41.145530700683594 50.08766555786133 52.92570495605469
C 40.31184387207031 50.391414642333984 51.820228576660156
H 40.775360107421875 50.76601028442383 50.911155700683594
C 38.930938720703125 50.42616271972656 51.90201950073242
H 38.373809814453125 50.735591888427734 51.02143096923828
C 38.26622772216797 50.00498962402344 53.07084274291992
C 40.464630126953125 49.7030029296875 54.08566665649414
H 41.03675079345703 49.49134826660156 54.98535919189453
C 39.068702697753906 49.67696762084961 54.173614501953125
H 38.50342559814453 49.419158935546875 55.06555938720703
C 42.664405822753906 50.26142883300781 52.88340759277344
C 43.22093963623047 50.76350784301758 51.625694274902344
C 43.16374206542969 50.2982063293457 50.34806823730469
H 42.698463439941406 49.3620719909668 50.05757522583008
C 43.708953857421875 51.368568420410156 49.5574951171875
H 43.724693298339844 51.40765380859375 48.47331237792969
C 44.253257751464844 52.31423568725586 50.36371994018555
N 43.92198181152344 51.94839859008789 51.608516693115234
H 44.19544982910156 52.53400802612305 52.38595199584961
C 44.85163879394531 53.620052337646484 49.99241638183594
H 44.751800537109375 53.95347595214844 48.960533142089844
C 45.68400573730469 54.382904052734375 50.71625900268555
C 45.922157287597656 55.70966720581055 50.58913803100586
H 45.415679931640625 56.35428237915039 49.878379821777344
C 46.81964874267578 56.05860137939453 51.59408187866211
H 47.18457794189453 57.06085205078125 51.792930603027344
C 47.13630676269531 54.83955764770508 52.30506896972656
N 46.380409240722656 53.83377456665039 51.75589370727539
C 48.11628723144531 54.661651611328125 53.40460968017578
C 47.72759246826172 54.017478942871094 54.57524871826172
C 48.042198181152344 54.26546096801758 55.87790298461914
H 48.67437744140625 55.05366897583008 56.273258209228516
C 47.41559600830078 53.35860061645508 56.70747375488281
H 47.59058380126953 53.14836883544922 57.75743103027344
C 46.523765563964844 52.5056037902832 55.90234375
N 46.7265625 53.06479263305664 54.713802337646484
H 46.14385223388672 52.77146911621094 53.94144821166992
C 45.78633117675781 51.485111236572266 56.34962463378906
H 45.94831848144531 51.3304557800293 57.415348052978516
C 44.86058044433594 50.654296875 55.62271499633789
C 44.100372314453125 49.53766632080078 56.02763366699219
H 44.22972869873047 49.05107498168945 56.98874282836914
C 43.311485290527344 49.1760139465332 54.962589263916016
H 42.667755126953125 48.3026123046875 54.962406158447266
C 43.45691680908203 50.13137435913086 53.98029708862305
N 44.53924560546875 50.85968780517578 54.352962493896484
C 52.238746643066406 55.33606719970703 52.31641387939453
C 51.88965606689453 54.84819793701172 53.555419921875
H 52.71263885498047 54.58213806152344 54.21382141113281
C 50.57062530517578 54.5909538269043 53.877628326416016
H 50.323455810546875 54.18513107299805 54.85527420043945
C 49.518028259277344 54.85434341430664 52.9749641418457
C 51.251243591308594 55.452430725097656 51.35710906982422
H 51.52146911621094 55.98899841308594 50.45121765136719
C 49.88652038574219 55.325477600097656 51.70140838623047
H 49.09807586669922 55.53004837036133 50.981632232666016
N 53.63427734375 55.394412994384766 51.986209869384766
H 53.82647705078125 55.100399017333984 51.04032516479492
C 54.724510192871094 55.74322509765625 52.77901077270508
O 54.57102966308594 56.18043518066406 53.925193786621094
C 56.14125061035156 55.534523010253906 52.23508071899414
C 56.53306579589844 54.568206787109375 51.2948112487793
H 55.803443908691406 53.81632995605469 51.0051383972168
C 57.81089782714844 54.46342849731445 50.80315017700195
C 58.861412048339844 55.182037353515625 51.37241744995117
H 59.880043029785156 55.1137809753418 50.99917984008789
C 58.54755401611328 56.243446350097656 52.241668701171875
H 59.224037170410156 57.00019454956055 52.6306037902832
C 57.19061279296875 56.33438491821289 52.67713165283203
H 56.965415954589844 57.125850677490234 53.38737106323242
C 58.105804443359375 53.461368560791016 49.75615310668945
H 57.16413879394531 53.014793395996094 49.44031524658203
C 59.28248596191406 53.11461639404297 49.18880844116211
H 60.140342712402344 53.686729431152344 49.53908157348633
C 59.53675842285156 52.27483367919922 48.062774658203125
C 58.356658935546875 51.38454055786133 47.54979705810547
H 58.6934814453125 50.457950592041016 47.08029556274414
H 57.763099670410156 51.822044372558594 46.74435043334961
H 57.789268493652344 50.96721267700195 48.3842887878418
C 60.835533142089844 52.08251953125 47.71939468383789
H 61.64910888671875 52.349220275878906 48.39236068725586
C 61.220542907714844 51.18602752685547 46.6256103515625
H 60.6177978515625 50.98774337768555 45.740562438964844
C 62.33399963378906 50.524654388427734 46.70975875854492
H 62.87092590332031 50.77711868286133 47.6229362487793
C 63.018402099609375 49.702125549316406 45.726741790771484
C 64.1473388671875 48.9119987487793 46.13996124267578
H 63.87969207763672 47.86011505126953 46.02014923095703
H 65.04740142822266 49.14467239379883 45.56706237792969
H 64.4612045288086 49.080238342285156 47.172264099121094
C 62.500526428222656 49.570037841796875 44.53110885620117
H 61.7303466796875 50.20468521118164 44.09526062011719
C 63.044532775878906 48.65339279174805 43.49823760986328
H 64.06388092041016 48.28925323486328 43.61765670776367
C 62.328224182128906 48.29641342163086 42.41960525512695
H 61.33197021484375 48.73598861694336 42.40655517578125
C 62.792449951171875 47.53660583496094 41.234439849853516
H 63.87416076660156 47.562156677246094 41.111228942871094
C 62.01103973388672 47.116004943847656 40.222225189208984
C 60.529457092285156 47.3068733215332 40.261016845703125
H 59.98328399658203 46.447845458984375 39.865753173828125
H 60.208045959472656 47.63199996948242 41.252708435058594
H 60.18791198730469 48.16777038574219 39.68251037597656
C 62.47700500488281 46.368492126464844 39.035892486572266
H 61.69758605957031 45.91841125488281 38.42281723022461
C 63.670753479003906 46.31503677368164 38.42667770385742
H 64.41793060302734 46.922420501708984 38.935333251953125
C 63.98921203613281 45.651878356933594 37.18288803100586
H 63.21990203857422 44.95732498168945 36.848690032958984
C 65.11824798583984 45.56356430053711 36.42596435546875
C 66.2636947631836 46.41580581665039 36.83470916748047
H 66.31381225585938 46.32667541503906 37.921913146972656
H 67.21746826171875 46.15591049194336 36.37078094482422
H 66.0096206665039 47.42256546020508 36.49656677246094
C 65.274658203125 44.733360290527344 35.24164581298828
H 65.9165267944336 45.17238235473633 34.47929000854492
C 65.01225280761719 43.45864486694336 35.15355682373047
H 64.28749084472656 42.998565673828125 35.823612213134766
C 65.39208221435547 42.57101821899414 33.987823486328125
C 66.61711883544922 42.50267028808594 33.40024185180664
C 67.79773712158203 43.40535354614258 33.81657409667969
H 67.93913269042969 44.24159622192383 33.12870407104492
H 67.73513793945312 43.78044509887695 34.8402214050293
H 68.69964599609375 42.78996276855469 33.83424758911133
C 66.9329833984375 41.703338623046875 32.20771408081055
H 67.86662292480469 41.15126419067383 32.334144592285156
H 67.10702514648438 42.368343353271484 31.359222412109375
C 65.92211151123047 40.52421951293945 31.917430877685547
H 66.06342315673828 39.69626998901367 32.61528778076172
H 66.01150512695312 40.21623229980469 30.873584747314453
C 64.57487487792969 41.160099029541016 32.051856994628906
H 64.5604476928711 41.92780303955078 31.27539825439453
H 63.87299346923828 40.450172424316406 31.60933494567871
C 64.23979187011719 41.70366287231445 33.435733795166016
C 62.914588928222656 42.35468292236328 33.486968994140625
H 62.21070861816406 41.68390655517578 32.98990249633789
H 62.58573913574219 42.66886901855469 34.4797477722168
H 63.003639221191406 43.269535064697266 32.897403717041016
C 64.13890075683594 40.51502227783203 34.37893295288086
H 63.476951599121094 39.742401123046875 33.982261657714844
H 65.08526611328125 39.99961471557617 34.555580139160156
H 63.54283905029297 40.805015563964844 35.24673843383789
