207
Triad, Carotenoid-Porphyrin-C60
C 44.228153228759766 66.891357421875 51.736366271972656
C 42.131492614746094 61.505149841308594 49.07981872558594
C 42.648494720458984 61.82988739013672 51.17236328125
C 42.93986511230469 63.668479919433594 52.727603912353516
C 41.51972579956055 62.68268585205078 47.07115173339844
C 42.38140106201172 61.80016326904297 47.74937057495117
C 40.09514236450195 62.79374694824219 49.0362548828125
C 40.74671936035156 63.235870361328125 51.76948547363281
C 42.06089782714844 67.4349136352539 51.49667739868164
C 40.35726547241211 63.154441833496094 47.69169235229492
C 43.46712112426758 66.03727722167969 52.51626205444336
C 42.815948486328125 65.84003448486328 46.2148551940918
C 42.244415283203125 63.54114532470703 46.2645149230957
C 43.09444046020508 67.73576354980469 47.64311981201172
C 41.2641716003418 67.85160064697266 49.268882751464844
C 42.601715087890625 68.18279266357422 48.85501480102539
C 40.68431091308594 65.33021545410156 46.76783752441406
C 39.54167556762695 63.86869812011719 49.72333526611328
C 39.82974624633789 64.08452606201172 51.13916015625
C 40.020713806152344 66.42122650146484 50.601966857910156
C 46.382652282714844 63.15348815917969 49.62712097167969
C 45.758583068847656 62.96864318847656 48.201839447021484
C 45.30424118041992 62.431373596191406 50.44721984863281
C 44.496726989746094 61.671531677246094 49.63727569580078
C 44.80534744262695 67.65084075927734 49.1744270324707
C 45.57624053955078 64.09752655029297 47.40141296386719
C 43.90066146850586 64.69369506835938 52.66162109375
C 44.156585693359375 65.53630065917969 46.40855026245117
C 43.605430603027344 63.19926452636719 46.45314407348633
C 44.419097900390625 67.36044311523438 47.88802719116211
C 44.797508239746094 62.988189697265625 51.569217681884766
C 40.99888229370117 66.65775299072266 47.2370491027832
C 40.48560333251953 67.05076599121094 48.49464416503906
C 40.115543365478516 65.35615539550781 51.5097541809082
C 39.49170684814453 64.90396881103516 48.80984115600586
C 46.681190490722656 64.64186096191406 50.09674835205078
C 46.34174346923828 65.75743865966797 49.16309356689453
C 45.83069610595703 65.1340103149414 51.31435012817383
C 45.6924934387207 66.8227767944336 49.80322265625
C 40.9937858581543 67.41869354248047 50.60251998901367
C 44.744361877441406 62.053871154785156 48.333335876464844
C 45.06170654296875 64.29086303710938 52.00439453125
C 45.35487747192383 66.40367126464844 51.126712799072266
C 43.492679595947266 62.655487060546875 51.9420051574707
C 43.63776779174805 68.11177825927734 49.79261779785156
C 45.85074996948242 65.42237091064453 47.88340377807617
C 44.50167465209961 64.24345397949219 46.54568099975586
C 43.16422653198242 61.35321044921875 49.955177307128906
C 43.690677642822266 62.12980651855469 47.350860595703125
C 39.70949935913086 66.19731140136719 49.300289154052734
C 44.993438720703125 66.2575454711914 47.217559814453125
C 43.35009765625 67.74064636230469 51.088172912597656
C 41.015933990478516 61.97315979003906 49.71438980102539
C 41.29480743408203 62.11088562011719 51.03142166137695
C 41.5465087890625 63.98567199707031 52.613243103027344
C 42.13081359863281 66.33001708984375 52.3692741394043
C 41.82832717895508 64.85075378417969 46.153846740722656
C 42.25469207763672 66.95806884765625 46.82542419433594
C 41.13962173461914 65.3144760131836 52.43843460083008
C 39.91051483154297 64.43801879882812 47.52027893066406
C 47.77350997924805 62.469871520996094 49.8576774597168
N 48.66330337524414 63.31239318847656 50.271339416503906
C 48.22877883911133 64.73042297363281 50.376522064208984
H 48.644996643066406 65.30200958251953 49.543033599853516
H 48.55938720703125 65.23619079589844 51.287315368652344
C 48.381622314453125 58.20184326171875 49.49095916748047
C 48.22962188720703 59.014366149902344 48.3938102722168
H 48.160980224609375 58.59394073486328 47.39375686645508
C 47.93061065673828 60.413795471191406 48.46963119506836
H 47.908660888671875 61.06475067138672 47.5993766784668
C 48.02585983276367 61.00004577636719 49.735050201416016
C 48.55965042114258 58.85448455810547 50.74068832397461
H 48.94161605834961 58.34850311279297 51.62367248535156
C 48.32535171508789 60.20062255859375 50.8577880859375
H 48.39352798461914 60.631813049316406 51.853275299072266
C 48.575523376464844 56.724510192871094 49.37287902832031
C 48.74383544921875 56.09681701660156 48.043155670166016
C 47.97283172607422 55.99402618408203 46.93149948120117
H 46.91847229003906 56.249122619628906 46.953460693359375
C 48.69035720825195 55.42698669433594 45.830020904541016
H 48.279117584228516 55.331932067871094 44.83048629760742
C 49.92756652832031 55.10883331298828 46.32137680053711
N 49.96805191040039 55.610595703125 47.57789993286133
H 50.83820724487305 55.68473815917969 48.08726119995117
C 51.13720703125 54.617889404296875 45.6540412902832
H 51.264015197753906 54.74949645996094 44.58048629760742
C 52.23523712158203 54.03624725341797 46.24273681640625
C 53.51856231689453 53.96382141113281 45.73556900024414
H 53.87612533569336 54.41364288330078 44.81521987915039
C 54.2309455871582 53.426300048828125 46.77077865600586
H 55.299617767333984 53.27427673339844 46.88059997558594
C 53.355228424072266 52.89220428466797 47.71700668334961
N 52.09412384033203 53.297996520996094 47.41868209838867
C 53.57468795776367 52.01990509033203 48.857479095458984
C 53.25667953491211 52.418006896972656 50.12337875366211
C 53.947410583496094 52.19706726074219 51.34239196777344
H 54.83713912963867 51.58936309814453 51.470096588134766
C 53.2661018371582 52.75215148925781 52.386661529541016
H 53.577484130859375 52.78227233886719 53.42558670043945
C 52.16464614868164 53.485595703125 51.87042236328125
N 52.23124313354492 53.220916748046875 50.54874801635742
H 51.76285934448242 53.80183410644531 49.86663818359375
C 51.14099884033203 54.109771728515625 52.5270881652832
H 51.212615966796875 54.073455810546875 53.61312484741211
C 50.0631103515625 54.894996643066406 51.94181823730469
C 48.915374755859375 55.54096221923828 52.5781364440918
H 48.87942123413086 55.39482879638672 53.65264892578125
C 48.12785339355469 56.04906463623047 51.64051818847656
H 47.185150146484375 56.57344055175781 51.75697708129883
C 48.852439880371094 56.009765625 50.49644470214844
N 49.8528938293457 55.13655090332031 50.62679672241211
C 55.10371398925781 48.049949645996094 48.023990631103516
C 54.744144439697266 48.41130828857422 49.31208801269531
H 54.95926284790039 47.64936065673828 50.056888580322266
C 54.139732360839844 49.66478729248047 49.59958267211914
H 53.923667907714844 49.854461669921875 50.64787673950195
C 53.99298858642578 50.60371398925781 48.599205017089844
C 54.80497741699219 48.90923309326172 46.99648666381836
H 54.97517776489258 48.728309631347656 45.93825149536133
C 54.31978988647461 50.205284118652344 47.28888702392578
H 54.138023376464844 50.89393615722656 46.46773147583008
N 55.773067474365234 46.839935302734375 47.7738151550293
H 55.566802978515625 46.10919952392578 48.43832015991211
C 56.94220733642578 46.78654479980469 47.141685485839844
O 57.437469482421875 47.8231201171875 46.72126007080078
C 57.6965446472168 45.489723205566406 47.080753326416016
C 56.980533599853516 44.277061462402344 47.185646057128906
H 55.90912628173828 44.33338928222656 47.360233306884766
C 57.60636901855469 43.01686096191406 47.06676483154297
C 58.955196380615234 43.07569885253906 46.65439987182617
H 59.5506477355957 42.186126708984375 46.46550369262695
C 59.71703338623047 44.23912811279297 46.62089538574219
H 60.75236129760742 44.179107666015625 46.29521942138672
C 59.050689697265625 45.424964904785156 46.8679313659668
H 59.507022857666016 46.340606689453125 46.5005989074707
C 56.869754791259766 41.813201904296875 47.298831939697266
H 55.82750701904297 41.83674621582031 47.61360549926758
C 57.322021484375 40.52574920654297 47.03553771972656
H 58.35326385498047 40.40016174316406 46.708900451660156
C 56.469764709472656 39.349205017089844 47.157955169677734
C 57.29148864746094 38.033721923828125 47.34067916870117
H 56.91446304321289 37.35063171386719 48.10468292236328
H 58.326148986816406 38.272987365722656 47.595035552978516
H 57.34246063232422 37.47355651855469 46.404685974121094
C 55.16901397705078 39.31128692626953 47.23402786254883
H 54.71503829956055 40.29063415527344 47.090145111083984
C 54.37192916870117 38.150299072265625 47.4246940612793
H 54.89859390258789 37.21668243408203 47.61677932739258
C 53.05193328857422 38.03821563720703 47.26839828491211
H 52.51320266723633 38.967376708984375 47.08856201171875
C 52.17205810546875 36.868980407714844 47.44198989868164
C 50.73134994506836 37.25011444091797 47.17684555053711
H 50.33001708984375 36.469764709472656 46.52688217163086
H 50.17875671386719 37.27800750732422 48.11829376220703
H 50.614341735839844 38.13316345214844 46.54518508911133
C 52.563255310058594 35.63397216796875 47.784481048583984
H 53.60894775390625 35.361942291259766 47.92031478881836
C 51.705501556396484 34.45404052734375 47.836917877197266
H 50.8016357421875 34.491573333740234 47.23067092895508
C 51.92543411254883 33.42912292480469 48.646461486816406
H 52.759559631347656 33.52898406982422 49.339412689208984
C 51.14272689819336 32.24272537231445 48.666805267333984
H 50.45582962036133 32.262794494628906 47.821998596191406
C 51.26906967163086 31.143218994140625 49.38758087158203
C 52.22700119018555 31.03952407836914 50.47947692871094
H 53.06293487548828 30.377643585205078 50.243682861328125
H 52.6480598449707 32.01283264160156 50.73994445800781
H 51.68147277832031 30.820533752441406 51.399749755859375
C 50.5045280456543 29.941009521484375 49.30842971801758
H 50.86514663696289 29.04378890991211 49.809303283691406
C 49.4304084777832 29.78351593017578 48.520503997802734
H 49.05377197265625 30.663963317871094 48.00196838378906
C 48.750492095947266 28.493080139160156 48.41511917114258
H 49.2791862487793 27.575828552246094 48.67017364501953
C 47.53352737426758 28.27826690673828 47.79490661621094
C 46.6993522644043 29.343814849853516 47.246856689453125
H 45.683414459228516 29.00925064086914 47.466854095458984
H 46.715248107910156 30.313613891601562 47.748558044433594
H 46.82889938354492 29.55858612060547 46.184051513671875
C 46.95411682128906 26.938156127929688 47.634674072265625
H 46.26744842529297 26.847862243652344 46.79428482055664
C 47.14113998413086 25.79415512084961 48.37323760986328
H 47.753684997558594 25.85710906982422 49.271427154541016
C 46.5291633605957 24.511592864990234 48.10698318481445
C 46.92917251586914 23.760974884033203 47.07307434082031
C 47.97083282470703 24.187702178955078 46.07478713989258
H 48.4239616394043 25.13166046142578 46.38475036621094
H 48.66422653198242 23.355358123779297 45.9373893737793
H 47.536285400390625 24.32611083984375 45.08258056640625
C 46.21352767944336 22.473297119140625 46.64323806762695
H 46.848716735839844 21.679615020751953 47.04206848144531
H 46.39554977416992 22.30223846435547 45.5801887512207
C 44.75822830200195 22.356109619140625 47.13673400878906
H 44.37450408935547 21.365612030029297 46.88349151611328
H 44.14978790283203 23.085647583007812 46.598175048828125
C 44.82950973510742 22.6595458984375 48.57780838012695
H 43.815406799316406 22.584190368652344 48.97578048706055
H 45.43314743041992 21.83694839477539 48.96693801879883
C 45.33189010620117 24.018722534179688 49.00501251220703
C 44.17388916015625 25.04360580444336 48.76229476928711
H 44.49315643310547 26.083480834960938 48.666412353515625
H 43.6939582824707 24.913185119628906 47.79012680053711
H 43.424285888671875 24.936325073242188 49.549095153808594
C 45.499244689941406 23.990650177001953 50.61875915527344
H 45.92607116699219 24.924114227294922 50.991493225097656
H 44.59989929199219 23.58273696899414 51.08485794067383
H 46.29196548461914 23.30630874633789 50.92816162109375
