207
Triad, Carotenoid-Porphyrin-C60
C 62.49671936035156 53.015289306640625 56.85261154174805
C 62.89405059814453 54.8607177734375 50.85855484008789
C 62.392181396484375 56.06500244140625 52.57107925415039
C 62.64002990722656 55.996665954589844 54.940128326416016
C 63.99456787109375 52.899253845214844 50.16574478149414
C 62.839393615722656 53.68041229248047 50.23518753051758
C 65.23584747314453 54.63599395751953 51.272945404052734
C 64.61591339111328 56.166358947753906 53.5389289855957
C 64.76101684570312 53.12834930419922 56.654476165771484
C 65.23927307128906 53.39415740966797 50.63485336303711
C 62.831642150878906 54.392921447753906 56.701602935791016
C 63.832183837890625 49.94544982910156 52.21529769897461
C 63.59563446044922 51.59092712402344 50.38515853881836
C 64.19794464111328 49.807655334472656 54.5090217590332
C 65.81475830078125 51.40467834472656 55.30392837524414
C 64.7086181640625 50.57945251464844 55.51972579956055
C 65.59961700439453 51.266807556152344 51.72347640991211
C 66.05519104003906 54.603004455566406 52.38333511352539
C 65.76493072509766 55.413551330566406 53.47183609008789
C 66.3261947631836 53.50066375732422 54.861263275146484
C 59.409759521484375 53.16657257080078 53.34555435180664
C 60.018714904785156 52.359657287597656 52.191471099853516
C 60.059326171875 54.48249816894531 53.033443450927734
C 60.638404846191406 54.44959259033203 51.76836013793945
C 62.475685119628906 50.543922424316406 55.843441009521484
C 60.63323211669922 51.140586853027344 52.389774322509766
C 62.02117919921875 55.20048522949219 55.912296295166016
C 62.48756408691406 49.93458557128906 52.24655532836914
C 62.206573486328125 51.556861877441406 50.58958053588867
C 62.779197692871094 49.78192138671875 54.704837799072266
C 60.706817626953125 55.16294860839844 54.08420944213867
C 65.82588195800781 50.71302795410156 52.97757339477539
C 66.36622619628906 51.45314025878906 54.005374908447266
C 65.84748077392578 54.81498718261719 54.75461196899414
C 66.58604431152344 53.324546813964844 52.50479507446289
C 59.59156799316406 52.50244140625 54.74838638305664
C 60.345252990722656 51.224342346191406 54.8043327331543
C 60.435821533203125 53.40495300292969 55.664974212646484
C 61.30219268798828 51.26689147949219 55.858280181884766
C 65.83929443359375 52.65672302246094 55.8227653503418
C 60.583404541015625 53.204254150390625 51.25801467895508
C 60.86796569824219 54.682525634765625 55.37302017211914
C 61.336570739746094 52.563514709472656 56.37504196166992
C 61.805992126464844 56.0390625 53.85756301879883
C 63.66150665283203 51.037506103515625 56.28617477416992
C 60.802513122558594 50.53578186035156 53.61336898803711
C 61.64286804199219 50.70830535888672 51.5214729309082
C 61.769187927246094 55.252586364746094 51.577579498291016
C 61.70857238769531 52.85057830810547 50.47002029418945
C 66.76141357421875 52.77098083496094 53.780818939208984
C 61.974769592285156 49.83094024658203 53.54983139038086
C 63.689613342285156 52.283775329589844 56.9018440246582
C 64.03435516357422 55.39356994628906 51.35323715209961
C 63.74755859375 56.16392517089844 52.411441802978516
C 64.00955963134766 56.085784912109375 54.7849006652832
C 64.21928405761719 54.40966796875 56.50986099243164
C 64.38436126708984 50.82550811767578 51.2369270324707
C 64.71441650390625 49.84996032714844 53.27394485473633
C 64.81486511230469 55.289161682128906 55.558284759521484
C 66.03594970703125 52.58125305175781 51.44560623168945
C 57.93157196044922 53.230010986328125 53.20515823364258
N 57.278602600097656 52.713050842285156 54.180057525634766
C 58.153465270996094 52.30475616455078 55.29133987426758
H 57.876312255859375 51.339820861816406 55.72346115112305
H 58.01158142089844 53.06544494628906 56.06326675415039
C 56.24607849121094 54.38960266113281 49.349735260009766
C 56.727745056152344 53.12098693847656 49.49281692504883
H 56.8109130859375 52.35577392578125 48.725284576416016
C 57.12895965576172 52.71741485595703 50.78255081176758
H 57.580726623535156 51.74555206298828 50.964115142822266
C 57.27568054199219 53.613433837890625 51.88319778442383
C 56.300743103027344 55.286773681640625 50.48850631713867
H 56.09892272949219 56.349830627441406 50.38481521606445
C 56.85255432128906 54.87919616699219 51.69534683227539
H 57.06068420410156 55.630149841308594 52.453182220458984
C 55.65545654296875 54.770851135253906 48.042816162109375
C 55.47541046142578 53.811553955078125 46.899436950683594
C 56.36186218261719 53.186614990234375 46.088687896728516
H 57.444557189941406 53.20768737792969 46.15619659423828
C 55.68895721435547 52.46118927001953 45.0474739074707
H 56.13136291503906 51.86827087402344 44.253780364990234
C 54.361541748046875 52.758262634277344 45.206626892089844
N 54.27238464355469 53.52162170410156 46.337989807128906
H 53.41278839111328 53.82305145263672 46.776573181152344
C 53.26703643798828 52.393150329589844 44.356971740722656
H 53.52808380126953 51.69036865234375 43.56711196899414
C 51.95924377441406 52.82444763183594 44.33036804199219
C 51.0250244140625 52.490196228027344 43.40998840332031
H 51.19617462158203 51.76310729980469 42.62305450439453
C 49.87330627441406 53.157684326171875 43.82746887207031
H 48.902191162109375 53.183135986328125 43.34424591064453
C 50.199462890625 53.848426818847656 45.047237396240234
N 51.48817443847656 53.67523956298828 45.29411315917969
C 49.41436767578125 54.865882873535156 45.78048324584961
C 49.82942199707031 56.15819549560547 46.03254318237305
C 49.19450378417969 57.406890869140625 45.95016860961914
H 48.14347839355469 57.38811492919922 45.681419372558594
C 50.08502197265625 58.45219421386719 46.22758483886719
H 49.93272399902344 59.525550842285156 46.18352127075195
C 51.307029724121094 57.87457275390625 46.66669845581055
N 51.00872039794922 56.53907775878906 46.62049865722656
H 51.705604553222656 55.823387145996094 46.7762565612793
C 52.536895751953125 58.390663146972656 47.04597854614258
H 52.73988342285156 59.455970764160156 46.946754455566406
C 53.706260681152344 57.685081481933594 47.48453903198242
C 55.01941680908203 58.26971435546875 47.67124557495117
H 55.31262969970703 59.30610656738281 47.54030990600586
C 55.86402130126953 57.1915283203125 47.912105560302734
H 56.94434356689453 57.228553771972656 48.00563049316406
C 55.08672332763672 56.02519989013672 47.89194869995117
N 53.85987854003906 56.349945068359375 47.62348556518555
C 45.830177307128906 53.45793151855469 47.824710845947266
C 46.137664794921875 54.843345642089844 47.82487487792969
H 45.446083068847656 55.49217224121094 48.356201171875
C 47.307777404785156 55.23566436767578 47.2161979675293
H 47.646209716796875 56.248779296875 47.41775131225586
C 48.11327362060547 54.38519287109375 46.440425872802734
C 46.55140686035156 52.54646301269531 47.01603698730469
H 46.303253173828125 51.48877716064453 46.98009490966797
C 47.685394287109375 53.03227233886719 46.37970733642578
H 48.25275421142578 52.31019592285156 45.79808044433594
N 44.643760681152344 53.0030517578125 48.43717956542969
H 44.23761749267578 52.29002380371094 47.85004806518555
C 43.976806640625 53.51233673095703 49.55257797241211
O 44.450050354003906 54.436378479003906 50.18214797973633
C 42.58820343017578 52.91905975341797 49.82712936401367
C 41.87212371826172 52.03877258300781 48.928653717041016
H 42.25856018066406 51.86316680908203 47.92795181274414
C 40.67284393310547 51.44178771972656 49.3840446472168
C 40.090599060058594 51.855690002441406 50.58334732055664
H 39.177589416503906 51.411224365234375 50.971195220947266
C 40.7464599609375 52.78577423095703 51.388118743896484
H 40.23567199707031 52.994483947753906 52.32466506958008
C 41.93394470214844 53.337486267089844 50.986141204833984
H 42.50585174560547 54.029151916503906 51.59939956665039
C 40.03418731689453 50.37379455566406 48.56528854370117
H 40.542816162109375 50.278472900390625 47.60710144042969
C 38.90086364746094 49.73921203613281 48.85348892211914
H 38.3372802734375 50.03047180175781 49.73862075805664
C 38.317962646484375 48.69743347167969 48.08699035644531
C 36.84716796875 48.59699249267578 48.350345611572266
H 36.57252502441406 47.90446472167969 49.148746490478516
H 36.36408233642578 48.20402526855469 47.453311920166016
H 36.322509765625 49.500244140625 48.66866683959961
C 38.99950408935547 47.912696838378906 47.165260314941406
H 40.074073791503906 48.05687713623047 47.06306838989258
C 38.47748565673828 46.77275085449219 46.50371551513672
H 37.42461395263672 46.579383850097656 46.70371627807617
C 39.19310760498047 45.970184326171875 45.69719696044922
H 40.25921630859375 46.19017791748047 45.66648483276367
C 38.61711120605469 44.76091003417969 45.21199035644531
C 39.58686828613281 43.63169860839844 45.205867767333984
H 40.272911071777344 43.776329040527344 46.043060302734375
H 39.03980255126953 42.72309875488281 45.46592712402344
H 40.12007141113281 43.621376037597656 44.25294876098633
C 37.339317321777344 44.55491638183594 44.87794494628906
H 36.78221130371094 45.487586975097656 44.95333480834961
C 36.59253692626953 43.336936950683594 44.51298904418945
H 37.28663635253906 42.510902404785156 44.36528396606445
C 35.26879119873047 43.06231689453125 44.27150344848633
H 34.56951904296875 43.885162353515625 44.412437438964844
C 34.78611755371094 41.656585693359375 44.139102935791016
H 35.494361877441406 40.83018493652344 44.10200119018555
C 33.508995056152344 41.21394348144531 43.97022247314453
C 32.49829864501953 42.192726135253906 43.81453323364258
H 32.42499542236328 42.83201599121094 44.69679641723633
H 32.7791748046875 42.779815673828125 42.93766784667969
H 31.438425064086914 41.94220733642578 43.7346076965332
C 33.15111541748047 39.80262756347656 43.86643981933594
H 32.253623962402344 39.7098388671875 43.25666809082031
C 33.790992736816406 38.816917419433594 44.556602478027344
H 34.61814880371094 39.04252624511719 45.22804641723633
C 33.181732177734375 37.542762756347656 44.67079162597656
H 32.19084930419922 37.46675109863281 44.22549819946289
C 33.73158264160156 36.447998046875 45.27155303955078
C 34.99806213378906 36.636260986328125 46.02094268798828
H 35.85303497314453 37.029273986816406 45.466854095458984
H 34.837890625 37.276206970214844 46.89116287231445
H 35.450889587402344 35.71598815917969 46.39577865600586
C 33.07269287109375 35.1190185546875 45.386802673339844
H 33.6005859375 34.459983825683594 46.074501037597656
C 31.877634048461914 34.74553680419922 44.88383483886719
H 31.475481033325195 35.401702880859375 44.11334991455078
C 31.164155960083008 33.459388732910156 44.87990951538086
C 31.13518714904785 32.72453308105469 45.990421295166016
C 31.544092178344727 33.17310333251953 47.43971252441406
H 32.612060546875 32.994102478027344 47.5806999206543
H 31.36955451965332 34.234519958496094 47.62785720825195
H 31.068544387817383 32.53218078613281 48.18505859375
C 30.55791664123535 31.3270263671875 46.009586334228516
H 29.561311721801758 31.45648193359375 46.4367790222168
H 31.177309036254883 30.783485412597656 46.726097106933594
C 30.672800064086914 30.635910034179688 44.591278076171875
H 30.16745948791504 29.668212890625 44.565704345703125
H 31.72397804260254 30.393104553222656 44.42236328125
C 30.02219581604004 31.56908416748047 43.539344787597656
H 29.917695999145508 31.056564331054688 42.580772399902344
H 28.95586585998535 31.758705139160156 43.67881774902344
C 30.662080764770508 32.96082305908203 43.48728561401367
C 31.711801528930664 32.79497528076172 42.411563873291016
H 32.47935485839844 32.048240661621094 42.6253662109375
H 31.31267738342285 32.62982177734375 41.40862274169922
H 32.26513671875 33.736114501953125 42.388484954833984
C 29.733827590942383 33.96575164794922 42.758949279785156
H 30.211076736450195 34.84596252441406 42.32315444946289
H 29.22911262512207 33.46465301513672 41.930320739746094
H 28.987199783325195 34.35810089111328 43.45254898071289
