207
Triad, Carotenoid-Porphyrin-C60
C 51.43684387207031 36.364742279052734 45.38785934448242
C 45.050453186035156 36.85432434082031 45.81014633178711
C 46.35170364379883 37.604896545410156 44.1897087097168
C 48.67981719970703 37.11711502075195 43.33768081665039
C 44.97467803955078 35.30303955078125 47.68244552612305
C 44.96827697753906 36.61449432373047 47.22542953491211
C 45.27408981323242 34.468265533447266 45.41018295288086
C 47.006103515625 35.39600372314453 43.3920783996582
C 50.828609466552734 34.31611251831055 45.02299880981445
C 45.127838134765625 34.22440719604492 46.79195022583008
C 50.72313690185547 36.34341049194336 44.17635726928711
C 47.87784957885742 34.63633728027344 49.726688385009766
C 45.75592803955078 35.333961486816406 48.856510162353516
C 50.08830642700195 34.1381721496582 48.93022537231445
C 50.03778076171875 32.94739532470703 46.86640548706055
C 50.698272705078125 33.79328155517578 47.755672454833984
C 46.78385925292969 33.20812225341797 48.312076568603516
C 46.231441497802734 33.61551284790039 44.91008377075195
C 47.09232711791992 34.08119583129883 43.85746383666992
C 48.872657775878906 32.935325622558594 44.93460464477539
C 48.48668670654297 39.6087646484375 47.214717864990234
C 47.61806869506836 38.81642150878906 48.173587799072266
C 47.6870231628418 39.26100158691406 45.952754974365234
C 46.420955657958984 38.76387023925781 46.318546295166016
C 51.27863693237305 35.87229919433594 48.11916732788086
C 48.162689208984375 37.975242614746094 49.13803482055664
C 49.87186050415039 37.39436340332031 43.86867141723633
C 48.28980255126953 35.90205001831055 49.96785354614258
C 46.08693313598633 36.60011672973633 49.14926528930664
C 50.49512481689453 35.44290542602539 49.16347122192383
C 48.36157989501953 38.80718231201172 44.78056716918945
C 48.151119232177734 32.84440231323242 48.3259162902832
C 48.7427864074707 32.458499908447266 47.12663650512695
C 48.39363098144531 33.64157485961914 43.897396087646484
C 46.721641540527344 32.85515213012695 45.94856643676758
C 49.99455642700195 39.198333740234375 47.21064376831055
C 50.37385559082031 38.165340423583984 48.223812103271484
C 50.42573928833008 38.4785041809082 45.93891525268555
C 51.20011901855469 37.19667434692383 47.64033126831055
C 50.087242126464844 33.226646423339844 45.528255462646484
C 46.35258483886719 38.47917556762695 47.658443450927734
C 49.70840072631836 38.47018814086914 44.750492095947266
C 51.18838119506836 37.40449142456055 46.266353607177734
C 47.693443298339844 37.97629928588867 43.91313552856445
C 51.548667907714844 34.784423828125 47.27839279174805
C 49.53706359863281 37.6652717590332 49.21355056762695
C 47.40242385864258 36.928592681884766 49.66865158081055
C 45.747100830078125 37.9620246887207 45.42257308959961
C 45.52866744995117 37.431026458740234 48.179805755615234
C 48.02640151977539 32.50065612792969 45.96574020385742
C 49.59414291381836 36.37767791748047 49.6546745300293
C 51.56350326538086 35.08140182495117 45.86563491821289
C 45.17254638671875 35.820884704589844 44.92518997192383
C 46.04071807861328 36.247032165527344 43.90388870239258
C 48.31035232543945 35.80086135864258 43.11507034301758
C 50.3526725769043 35.043312072753906 43.92275619506836
C 46.65975570678711 34.35315704345703 49.16493606567383
C 48.78657913208008 33.72504806518555 49.163028717041016
C 49.10148620605469 34.70365905761719 43.37636184692383
C 46.08842086791992 33.20467758178711 47.08883285522461
C 48.525848388671875 41.06697463989258 47.59125900268555
N 49.67218017578125 41.59205627441406 47.62312698364258
C 50.76572799682617 40.54228591918945 47.342342376708984
H 51.463199615478516 40.51382064819336 48.18339157104492
H 51.388099670410156 40.94721603393555 46.54025650024414
C 44.84928512573242 43.29903030395508 48.560359954833984
C 45.44831848144531 42.29268264770508 49.448726654052734
H 44.97356414794922 42.15485763549805 50.416812896728516
C 46.60670852661133 41.577674865722656 49.09969711303711
H 47.057891845703125 40.9268684387207 49.84431076049805
C 47.29091262817383 41.788124084472656 47.91232681274414
C 45.567420959472656 43.58330535888672 47.42679214477539
H 45.237979888916016 44.28323745727539 46.66315841674805
C 46.721126556396484 42.793453216552734 47.070377349853516
H 47.13017654418945 42.861019134521484 46.065547943115234
C 43.5730094909668 44.022884368896484 48.92707443237305
C 43.06924819946289 43.769493103027344 50.3076057434082
C 42.72536849975586 42.63645935058594 50.94723892211914
H 42.761619567871094 41.62213897705078 50.56374740600586
C 42.08280563354492 42.94904708862305 52.13205337524414
H 41.68735122680664 42.20436096191406 52.81491470336914
C 41.954288482666016 44.27057647705078 52.179264068603516
N 42.557456970214844 44.793338775634766 51.09072494506836
H 42.56242752075195 45.758392333984375 50.7894401550293
C 41.18201446533203 44.98162078857422 53.246517181396484
H 40.828853607177734 44.340087890625 54.05252456665039
C 40.852081298828125 46.30828857421875 53.2628288269043
C 39.868595123291016 46.86051559448242 54.1275520324707
H 39.35206604003906 46.379215240478516 54.9514274597168
C 39.81458282470703 48.18101119995117 53.7470588684082
H 39.107444763183594 48.9563102722168 54.02291488647461
C 40.72322463989258 48.412147521972656 52.6984748840332
N 41.375892639160156 47.28907012939453 52.45127487182617
C 40.970943450927734 49.6041374206543 51.91426467895508
C 40.84975814819336 49.69631576538086 50.539058685302734
C 40.08483123779297 50.604156494140625 49.70352554321289
H 39.42925262451172 51.411521911621094 50.01273727416992
C 40.183616638183594 50.110931396484375 48.404972076416016
H 39.72257995605469 50.446510314941406 47.48189926147461
C 40.945640563964844 48.94303512573242 48.371341705322266
N 41.19910430908203 48.70942306518555 49.67631912231445
H 41.59410858154297 47.84096908569336 50.010807037353516
C 41.27903747558594 48.11467742919922 47.40877151489258
H 41.05998229980469 48.43044662475586 46.389835357666016
C 41.9997673034668 46.80723190307617 47.38410568237305
C 42.223636627197266 45.91217803955078 46.30495834350586
H 42.00405502319336 46.089149475097656 45.25725173950195
C 42.81641387939453 44.71183776855469 46.77560043334961
H 42.99034881591797 43.799102783203125 46.21535110473633
C 43.03357696533203 44.961509704589844 48.07374954223633
N 42.4392204284668 46.132755279541016 48.45487594604492
C 42.301090240478516 53.12207794189453 54.276737213134766
C 42.19358825683594 53.19801712036133 52.87094497680664
H 42.422279357910156 54.09001541137695 52.29335403442383
C 41.8133430480957 52.00350570678711 52.11954116821289
H 41.88312530517578 52.00601577758789 51.034786224365234
C 41.470706939697266 50.81498718261719 52.7519416809082
C 42.06839370727539 51.89408874511719 54.85764694213867
H 42.28560256958008 51.813751220703125 55.91969680786133
C 41.65619659423828 50.770050048828125 54.12460708618164
H 41.55736541748047 49.819602966308594 54.64272689819336
N 42.49040985107422 54.280887603759766 55.044742584228516
H 42.96763229370117 55.00238800048828 54.525333404541016
C 42.0887336730957 54.571739196777344 56.33320999145508
O 41.34000015258789 53.87542724609375 56.978336334228516
C 42.526973724365234 55.94721984863281 56.881778717041016
C 43.58222198486328 56.54086685180664 56.28518295288086
H 44.27267074584961 55.950439453125 55.68831253051758
C 44.0074348449707 57.85289001464844 56.71653366088867
C 43.2960205078125 58.47591781616211 57.71482467651367
H 43.55804443359375 59.516136169433594 57.8905143737793
C 42.2292366027832 57.88026809692383 58.3375358581543
H 41.84889602661133 58.49168395996094 59.15183639526367
C 41.853126525878906 56.62803649902344 57.92452621459961
H 41.07111358642578 56.10936737060547 58.47316360473633
C 45.12302017211914 58.568363189697266 56.013973236083984
H 45.44794464111328 57.901084899902344 55.2170524597168
C 45.63100814819336 59.83163833618164 56.13296890258789
H 45.270931243896484 60.425254821777344 56.97194290161133
C 46.82231140136719 60.33443069458008 55.44510269165039
C 47.133174896240234 61.761436462402344 55.81612777709961
H 46.54386520385742 62.4547119140625 55.21235275268555
H 48.19730758666992 62.00099182128906 55.764278411865234
H 47.009727478027344 61.9713249206543 56.88063430786133
C 47.41987609863281 59.76815414428711 54.387577056884766
H 47.043968200683594 58.81692886352539 54.01369857788086
C 48.62032699584961 60.12148666381836 53.67940902709961
H 48.91926193237305 61.16399383544922 53.5806999206543
C 49.352176666259766 59.22740936279297 53.07175827026367
H 49.0886116027832 58.174129486083984 53.15573501586914
C 50.606719970703125 59.518314361572266 52.27156448364258
C 50.905540466308594 60.954078674316406 52.04262161254883
H 50.14365768432617 61.33655548095703 51.36019515991211
H 50.836036682128906 61.45802688598633 53.00888442993164
H 51.915924072265625 61.14352798461914 51.674259185791016
C 51.39573287963867 58.51015090942383 51.8009147644043
H 51.099910736083984 57.502830505371094 52.090267181396484
C 52.55012512207031 58.564388275146484 50.93107223510742
H 53.03904342651367 59.52481460571289 50.7746696472168
C 53.03449249267578 57.545997619628906 50.207889556884766
H 52.60068893432617 56.5484733581543 50.2597770690918
C 54.136592864990234 57.72346115112305 49.25363540649414
H 54.45494842529297 58.7609748840332 49.16341018676758
C 54.522315979003906 56.83612060546875 48.325504302978516
C 53.86968994140625 55.49219512939453 48.13520431518555
H 54.26411056518555 54.95451354980469 47.27045822143555
H 54.02016067504883 54.858924865722656 49.012020111083984
H 52.788658142089844 55.54895782470703 47.99167251586914
C 55.588932037353516 57.18822479248047 47.3358268737793
H 56.1056022644043 56.37483215332031 46.82851791381836
C 56.08435821533203 58.40125274658203 47.055850982666016
H 55.61503601074219 59.29202651977539 47.47080612182617
C 57.15615463256836 58.73665237426758 46.11796951293945
H 57.687870025634766 57.869415283203125 45.7292594909668
C 57.57373809814453 59.88686752319336 45.60751724243164
C 56.925296783447266 61.17201614379883 46.12990951538086
H 57.62268829345703 62.000526428222656 46.27021408081055
H 56.036251068115234 61.55405807495117 45.623844146728516
H 56.64546203613281 60.97126388549805 47.16617965698242
C 58.592655181884766 59.975040435791016 44.6057243347168
H 59.056297302246094 59.02826690673828 44.332645416259766
C 58.8714485168457 61.07291793823242 43.93193435668945
H 58.18052291870117 61.91466522216797 43.93520736694336
C 59.94101333618164 61.07166290283203 42.91531753540039
C 61.21790313720703 60.730384826660156 43.18253707885742
C 61.672523498535156 60.28447723388672 44.58339309692383
H 61.509063720703125 59.205780029296875 44.630001068115234
H 62.71798324584961 60.53318786621094 44.7773551940918
H 61.113521575927734 60.79814529418945 45.36832809448242
C 62.333858489990234 60.704742431640625 42.191829681396484
H 62.82019805908203 59.74861145019531 42.39616012573242
H 63.11756896972656 61.393882751464844 42.513301849365234
C 61.89126205444336 60.78870391845703 40.777217864990234
H 61.560874938964844 59.81151580810547 40.41887283325195
H 62.71807098388672 61.128456115722656 40.14999008178711
C 60.737770080566406 61.720359802246094 40.587886810302734
H 61.14466094970703 62.67449188232422 40.929264068603516
H 60.418209075927734 61.837425231933594 39.55027389526367
C 59.5250358581543 61.421634674072266 41.44075393676758
C 58.64375686645508 62.64372634887695 41.28474807739258
H 57.60010528564453 62.48310470581055 41.56303024291992
H 58.98014450073242 63.40713119506836 41.9893913269043
H 58.52850341796875 63.07698440551758 40.28902053833008
C 58.66722106933594 60.338157653808594 40.795589447021484
H 57.656585693359375 60.22205352783203 41.192569732666016
H 58.501220703125 60.42021942138672 39.71940231323242
H 59.2418098449707 59.41852951049805 40.92441940307617
