207
Triad, Carotenoid-Porphyrin-C60
C 30.547134399414062 50.418636322021484 58.21373748779297
C 34.00078582763672 52.372772216796875 53.09260940551758
C 32.251922607421875 51.07557678222656 53.172054290771484
C 30.357223510742188 50.530479431152344 54.57601547241211
C 35.091773986816406 54.05489730834961 54.430057525634766
C 35.081695556640625 52.815914154052734 53.84078598022461
C 32.87715148925781 54.45827865600586 53.575992584228516
C 30.657207489013672 52.75798416137695 53.74092483520508
C 29.90987777709961 52.498695373535156 58.00004577636719
C 33.973541259765625 54.856327056884766 54.316566467285156
C 29.89624786376953 50.55726623535156 56.96999740600586
C 35.296234130859375 53.91446304321289 58.06584167480469
C 35.74290466308594 53.862159729003906 55.66899871826172
C 33.51932144165039 53.42094802856445 59.58147430419922
C 31.428634643554688 54.23402404785156 58.65709686279297
C 32.12142562866211 53.36065673828125 59.52941131591797
C 34.181915283203125 55.312522888183594 56.706905364990234
C 31.759658813476562 54.8331298828125 54.30060958862305
C 30.611038208007812 54.02809143066406 54.37639617919922
C 30.320117950439453 54.52024459838867 56.7113037109375
C 34.41211700439453 48.776832580566406 55.97997283935547
C 35.417137145996094 49.88196563720703 55.968196868896484
C 33.52119064331055 49.20082092285156 54.820064544677734
C 34.23602294921875 50.165401458740234 54.00966262817383
C 32.88896560668945 51.2723388671875 59.62946319580078
C 35.81993865966797 50.605979919433594 57.11721420288086
C 30.337249755859375 49.94533157348633 55.84318542480469
C 35.744041442871094 52.64509582519531 58.13721466064453
C 36.186058044433594 52.56296920776367 55.75919723510742
C 33.99425506591797 52.114837646484375 59.67323303222656
C 32.162841796875 49.22332000732422 54.80987548828125
C 33.47193145751953 55.164981842041016 57.89733123779297
C 32.10550308227539 55.18697738647461 57.914634704589844
C 29.91265106201172 53.82157897949219 55.53483963012695
C 32.116397857666016 55.44987869262695 55.489349365234375
C 33.717491149902344 48.582359313964844 57.355934143066406
C 34.095909118652344 49.59163284301758 58.415260314941406
C 32.12422561645508 48.872413635253906 57.223602294921875
C 32.92108154296875 50.11653518676758 58.92161560058594
C 30.25415802001953 53.8540153503418 57.96795654296875
C 35.310089111328125 50.56002426147461 54.69622039794922
C 31.425739288330078 49.08005905151367 55.95534133911133
C 31.71505355834961 49.66972351074219 58.27915954589844
C 31.52457046508789 50.13916015625 53.958980560302734
C 31.679798126220703 52.0657844543457 59.579002380371094
C 35.15392303466797 50.459228515625 58.33130645751953
C 36.192588806152344 51.9415397644043 56.988224029541016
C 33.5914421081543 51.06245040893555 53.19232940673828
C 35.73533630371094 51.88991928100586 54.61689758300781
C 31.415042877197266 55.31914520263672 56.6953125
C 35.10375213623047 51.69679641723633 58.957481384277344
C 30.59139633178711 51.64646911621094 58.84729766845703
C 32.88010025024414 53.19982147216797 52.961639404296875
C 31.772624969482422 52.33401870727539 53.0179557800293
C 29.948287963867188 51.85406494140625 54.5285758972168
C 29.5001220703125 51.87285614013672 56.91384506225586
C 35.35584259033203 54.551124572753906 56.86430740356445
C 34.14983367919922 54.25828552246094 58.68763732910156
C 29.51519012451172 52.51443862915039 55.70895767211914
C 33.51283645629883 55.47224426269531 55.494022369384766
C 35.041404724121094 47.3526611328125 55.743160247802734
N 34.77812194824219 46.61383819580078 56.69782638549805
C 33.957733154296875 47.10392379760742 57.784461975097656
H 34.48869323730469 46.96531677246094 58.72972869873047
H 33.07292175292969 46.465797424316406 57.717010498046875
C 38.441612243652344 46.48035430908203 53.14543151855469
C 37.29558563232422 47.17363739013672 52.640865325927734
H 37.213111877441406 47.4710807800293 51.598609924316406
C 36.27393341064453 47.433284759521484 53.54161071777344
H 35.42185974121094 47.9388427734375 53.094444274902344
C 36.241127014160156 46.99396896362305 54.86901092529297
C 38.48204803466797 46.147743225097656 54.5339241027832
H 39.38550567626953 45.722232818603516 54.963199615478516
C 37.385658264160156 46.322879791259766 55.39302062988281
H 37.41807556152344 45.87501907348633 56.38294219970703
C 39.60321044921875 46.09393310546875 52.25260543823242
C 39.655601501464844 46.72267150878906 50.97749710083008
C 38.782997131347656 46.85206604003906 49.95563888549805
H 37.815269470214844 46.3670768737793 49.88137435913086
C 39.36793518066406 47.70664596557617 48.9704475402832
H 39.06591796875 47.971858978271484 47.962642669677734
C 40.685302734375 47.96751403808594 49.3936653137207
N 40.754722595214844 47.45603561401367 50.669029235839844
H 41.48542785644531 47.75267028808594 51.3016357421875
C 41.71781921386719 48.76850509643555 48.82639694213867
H 41.388572692871094 49.67407989501953 48.31898880004883
C 43.07368469238281 48.56715774536133 48.967411041259766
C 44.055824279785156 49.538330078125 48.65825271606445
H 43.850608825683594 50.52267837524414 48.2506103515625
C 45.22541046142578 48.883296966552734 48.8057975769043
H 46.214088439941406 49.31897735595703 48.706172943115234
C 44.95826721191406 47.584800720214844 49.318485260009766
N 43.63972473144531 47.3376579284668 49.25635528564453
C 45.92930603027344 46.534671783447266 49.60260772705078
C 45.82000732421875 45.900489807128906 50.81480026245117
C 46.82764434814453 45.29001235961914 51.65847396850586
H 47.871795654296875 45.440677642822266 51.40495681762695
C 46.296356201171875 44.643497467041016 52.7342643737793
H 46.80809783935547 44.104705810546875 53.524864196777344
C 44.864662170410156 44.77510070800781 52.63309097290039
N 44.724029541015625 45.66086959838867 51.5797004699707
H 43.854652404785156 46.15019607543945 51.41582107543945
C 43.92396545410156 44.153175354003906 53.3927001953125
H 44.3082275390625 43.33757781982422 54.00349807739258
C 42.473167419433594 44.32045364379883 53.31743621826172
C 41.452789306640625 43.541404724121094 53.93915557861328
H 41.70758056640625 42.735694885253906 54.61969757080078
C 40.283103942871094 44.127647399902344 53.475093841552734
H 39.29309844970703 43.84038162231445 53.813621520996094
C 40.625152587890625 45.25756072998047 52.76857376098633
N 41.94275665283203 45.28215789794922 52.588401794433594
C 48.24424743652344 44.83502197265625 46.51905059814453
C 48.143638610839844 44.08707046508789 47.650421142578125
H 48.69525909423828 43.167869567871094 47.83030319213867
C 47.50250244140625 44.70827865600586 48.732200622558594
H 47.490936279296875 44.19993591308594 49.69293975830078
C 46.724456787109375 45.86613464355469 48.56481170654297
C 47.636680603027344 46.03740310668945 46.32986831665039
H 47.65894317626953 46.53778076171875 45.365142822265625
C 46.780372619628906 46.49304962158203 47.28282165527344
H 46.191078186035156 47.377845764160156 47.05603790283203
N 49.12992858886719 44.344207763671875 45.46514129638672
H 49.089637756347656 43.347591400146484 45.31278610229492
C 50.07115173339844 45.060997009277344 44.75833511352539
O 50.18357849121094 46.282283782958984 44.84442901611328
C 51.01979064941406 44.214664459228516 43.90492630004883
C 52.25514221191406 44.7024040222168 43.52846908569336
H 52.484130859375 45.729061126708984 43.802520751953125
C 53.20124053955078 43.94812774658203 42.83307647705078
C 52.827850341796875 42.64267349243164 42.42283248901367
H 53.56898498535156 42.010459899902344 41.9405403137207
C 51.496490478515625 42.22649383544922 42.69511032104492
H 51.075958251953125 41.26630783081055 42.40742492675781
C 50.621185302734375 42.96772766113281 43.46000289916992
H 49.61845397949219 42.6346321105957 43.715267181396484
C 54.474273681640625 44.60345458984375 42.54433059692383
H 54.49195861816406 45.5877799987793 43.009857177734375
C 55.57384490966797 44.17832946777344 41.80644607543945
H 55.346839904785156 43.23297119140625 41.31584548950195
C 56.844879150390625 44.74126052856445 41.606571197509766
C 56.86817169189453 46.21021270751953 41.87885665893555
H 57.66407775878906 46.6801643371582 41.297359466552734
H 57.14710235595703 46.39277267456055 42.91872787475586
H 55.92561340332031 46.647865295410156 41.54342269897461
C 57.93219757080078 44.10707473754883 41.245845794677734
H 57.827674865722656 43.02324676513672 41.263614654541016
C 59.21363067626953 44.657508850097656 41.02182388305664
H 59.265769958496094 45.73634719848633 40.88287353515625
C 60.39928436279297 44.00470733642578 40.891353607177734
H 60.380287170410156 42.919376373291016 40.97860336303711
C 61.7335205078125 44.541542053222656 40.76438522338867
C 62.86549377441406 43.5772705078125 41.03593063354492
H 63.545555114746094 43.540802001953125 40.18232345581055
H 63.421424865722656 43.88408660888672 41.924339294433594
H 62.407142639160156 42.605960845947266 41.233280181884766
C 61.91808319091797 45.81713104248047 40.3756217956543
H 61.03936767578125 46.38559341430664 40.074581146240234
C 63.14617919921875 46.539894104003906 40.29020690917969
H 63.963050842285156 45.88546371459961 40.59080123901367
C 63.31647491455078 47.87843704223633 40.032264709472656
H 62.39045715332031 48.43110656738281 39.8807487487793
C 64.60189819335938 48.509918212890625 40.1410026550293
H 65.41897583007812 47.86216354370117 40.455196380615234
C 64.97750091552734 49.75762939453125 39.79741668701172
C 64.05170440673828 50.73964309692383 39.182403564453125
H 63.48504638671875 50.16630935668945 38.44575500488281
H 63.54167175292969 51.245445251464844 40.0048942565918
H 64.41381072998047 51.54545974731445 38.54052734375
C 66.30745697021484 50.22532272338867 39.89312744140625
H 66.59601593017578 51.0107421875 39.19615173339844
C 67.35783386230469 49.861045837402344 40.75202941894531
H 67.21495056152344 49.20990753173828 41.6131477355957
C 68.65584564208984 50.41004180908203 40.6305046081543
H 68.76721954345703 51.17627716064453 39.86473846435547
C 69.78954315185547 50.03042984008789 41.16654586791992
C 69.8328857421875 48.850303649902344 42.1131591796875
H 68.98963165283203 48.15778732299805 42.070884704589844
H 70.75768280029297 48.294673919677734 41.9443473815918
H 69.81350708007812 49.17270278930664 43.156307220458984
C 71.00064086914062 50.77736282348633 41.0073127746582
H 71.05491638183594 51.580284118652344 40.27362823486328
C 72.16856384277344 50.63359451293945 41.699405670166016
H 72.3930892944336 49.936134338378906 42.50504684448242
C 73.3823013305664 51.35878372192383 41.29472351074219
C 73.46369934082031 52.70941925048828 41.118324279785156
C 72.39482879638672 53.75314712524414 41.2869758605957
H 71.4958724975586 53.29674530029297 41.70653533935547
H 72.79228210449219 54.542091369628906 41.92889404296875
H 72.18666076660156 54.27537155151367 40.35081100463867
C 74.72395324707031 53.43240737915039 40.65250778198242
H 74.77368927001953 54.43623733520508 41.079490661621094
H 74.57328033447266 53.56853485107422 39.579551696777344
C 75.98509979248047 52.622615814208984 40.79487991333008
H 76.24691772460938 52.44284439086914 41.83967208862305
H 76.82327270507812 53.20794677734375 40.411067962646484
C 75.86576843261719 51.238372802734375 40.2020378112793
H 75.61690521240234 51.371307373046875 39.14711380004883
H 76.81556701660156 50.70783615112305 40.29622268676758
C 74.70640563964844 50.486976623535156 40.98414611816406
C 74.38834381103516 49.29792404174805 40.23644256591797
H 73.739990234375 48.6612434387207 40.8420295715332
H 73.94705963134766 49.57892608642578 39.27791976928711
H 75.27166748046875 48.669883728027344 40.1031494140625
C 75.2811279296875 49.88676834106445 42.25279235839844
H 74.58695220947266 49.44507598876953 42.970767974853516
H 76.12782287597656 49.210357666015625 42.11850357055664
H 75.73257446289062 50.708457946777344 42.81269454956055
