207
Triad, Carotenoid-Porphyrin-C60
C 38.59379959106445 40.03725814819336 50.94701385498047
C 43.72745132446289 43.706241607666016 51.97585678100586
C 43.41103744506836 41.522979736328125 52.20512771606445
C 42.03519058227539 39.75312423706055 51.442073822021484
C 42.707210540771484 45.511558532714844 50.77141571044922
C 43.0681266784668 44.966156005859375 51.9642333984375
C 43.637874603271484 43.64012145996094 49.56727981567383
C 43.383907318115234 40.889747619628906 49.88837432861328
C 39.17304611206055 40.39314270019531 48.812721252441406
C 42.91520309448242 44.80609893798828 49.5726203918457
C 39.8206672668457 39.370338439941406 50.74486541748047
C 39.18894577026367 45.82884216308594 50.261260986328125
C 41.455928802490234 46.20710754394531 50.97963333129883
C 37.67863845825195 44.066688537597656 49.4943962097168
C 38.82161331176758 42.620113372802734 47.983924865722656
C 37.8179817199707 42.828670501708984 48.899044036865234
C 40.77724838256836 45.49773406982422 48.74005889892578
C 43.10673904418945 42.87434768676758 48.53636932373047
C 43.03645706176758 41.480308532714844 48.66794204711914
C 40.82661819458008 41.63893508911133 47.62981033325195
C 40.15858840942383 42.43186950683594 54.62407684326172
C 40.38434982299805 43.88639831542969 54.112579345703125
C 41.432857513427734 41.89751052856445 54.09408187866211
C 42.37944412231445 42.908790588378906 53.79262924194336
C 37.22306442260742 42.42655563354492 50.982154846191406
C 39.444087982177734 44.685691833496094 53.49211502075195
C 40.7571907043457 39.412811279296875 51.73024368286133
C 38.75014877319336 45.66968536376953 51.57575607299805
C 41.059993743896484 46.0003662109375 52.293392181396484
C 37.40586471557617 43.835662841796875 50.83797836303711
C 41.49655532836914 40.67115783691406 53.40525436401367
C 39.58208084106445 44.95453643798828 48.254207611083984
C 39.69388961791992 43.66089630126953 47.6931266784668
C 41.83830642700195 40.86436080932617 48.20528030395508
C 42.091670989990234 43.60784149169922 47.95416259765625
C 38.84804916381836 41.75336837768555 54.159053802490234
C 38.023677825927734 42.660675048828125 53.275123596191406
C 39.14668655395508 40.516876220703125 53.276084899902344
C 37.597957611083984 41.85417938232422 52.22127151489258
C 39.50136184692383 41.41514587402344 47.93875503540039
C 41.66719436645508 44.10841369628906 53.69343566894531
C 40.402103424072266 40.01454162597656 52.930179595947266
C 38.31435775756836 40.614566802978516 52.19343566894531
C 42.49692916870117 40.501243591308594 52.52309036254883
C 37.475215911865234 41.83953094482422 49.78493118286133
C 38.25948715209961 44.02320861816406 53.03759765625
C 39.677669525146484 45.666961669921875 52.59495162963867
C 43.42349624633789 42.681365966796875 52.91703414916992
C 42.05195236206055 45.203155517578125 52.9051628112793
C 40.931148529052734 43.032623291015625 47.49071502685547
C 37.91200637817383 44.63568115234375 51.86977005004883
C 38.13645553588867 40.59735107421875 49.722415924072266
C 43.95267868041992 43.09630584716797 50.74252700805664
C 43.820865631103516 41.73026657104492 50.928287506103516
C 42.49482345581055 39.88054656982422 50.152381896972656
C 40.18399429321289 39.624053955078125 49.42409896850586
C 40.5012092590332 46.093780517578125 49.98363494873047
C 38.569644927978516 45.106849670410156 49.19430160522461
C 41.52311325073242 39.8524284362793 49.09255599975586
C 42.02182388305664 44.83679962158203 48.50272750854492
C 39.99644088745117 42.23239517211914 56.140052795410156
N 38.82292556762695 41.880802154541016 56.55915451049805
C 37.96548080444336 41.435089111328125 55.434959411621094
H 37.0462532043457 42.021339416503906 55.35762405395508
H 37.656620025634766 40.394432067871094 55.56258773803711
C 43.128475189208984 43.325931549072266 58.98519515991211
C 43.12077713012695 42.040138244628906 58.43383026123047
H 43.83063888549805 41.27660369873047 58.74153137207031
C 42.070621490478516 41.72932052612305 57.53554153442383
H 41.951839447021484 40.66401290893555 57.35505676269531
C 41.16303634643555 42.68724060058594 57.04326248168945
C 42.273555755615234 44.3226318359375 58.453392028808594
H 42.443660736083984 45.353050231933594 58.75483703613281
C 41.28093338012695 44.01109313964844 57.51763153076172
H 40.583621978759766 44.717994689941406 57.075340270996094
C 44.25778579711914 43.71109390258789 59.904327392578125
C 45.284481048583984 42.739280700683594 60.1667594909668
C 45.2625617980957 41.488868713378906 60.766265869140625
H 44.51407241821289 41.09101867675781 61.44354248046875
C 46.62309646606445 41.01676940917969 60.645164489746094
H 47.065982818603516 40.11166763305664 61.047489166259766
C 47.42781448364258 41.94163513183594 59.943824768066406
N 46.54904556274414 42.93087387084961 59.64358901977539
H 46.68821334838867 43.70069122314453 59.003173828125
C 48.843257904052734 41.97377395629883 59.66078567504883
H 49.36209487915039 41.08060836791992 60.00571823120117
C 49.6020622253418 42.955047607421875 59.1173095703125
C 50.3239860534668 42.77405548095703 57.933555603027344
H 50.394283294677734 41.819759368896484 57.422080993652344
C 50.75979995727539 44.00662612915039 57.58890151977539
H 51.24985885620117 44.394775390625 56.70210647583008
C 50.30083084106445 44.9732666015625 58.50106430053711
N 49.563846588134766 44.33881378173828 59.45205307006836
C 50.30514907836914 46.41827392578125 58.46858596801758
C 49.4185905456543 47.24467468261719 59.12558364868164
C 49.654788970947266 48.50365447998047 59.75455856323242
H 50.63120651245117 48.973388671875 59.81098556518555
C 48.55388259887695 49.026649475097656 60.31424331665039
H 48.407718658447266 49.94609069824219 60.87146759033203
C 47.52603530883789 48.06895446777344 60.1796875
N 48.157649993896484 47.04535675048828 59.55162048339844
H 47.65632247924805 46.17973327636719 59.405052185058594
C 46.30440902709961 47.946510314941406 60.807003021240234
H 46.08354568481445 48.77690124511719 61.47602844238281
C 45.32363510131836 46.92594909667969 60.76968002319336
C 44.08675765991211 46.892906188964844 61.43476104736328
H 43.75117111206055 47.71356964111328 62.0601692199707
C 43.52875900268555 45.69154357910156 61.097225189208984
H 42.540409088134766 45.31813049316406 61.34410858154297
C 44.42966079711914 45.029632568359375 60.29201889038086
N 45.45396041870117 45.802642822265625 60.08005142211914
C 53.44295883178711 48.410438537597656 56.154510498046875
C 52.29945755004883 49.137977600097656 56.67937088012695
H 52.25021743774414 50.206939697265625 56.48838424682617
C 51.34585189819336 48.478797912597656 57.50609588623047
H 50.41097640991211 49.02629852294922 57.59455490112305
C 51.419254302978516 47.105621337890625 57.70427322387695
C 53.54795455932617 47.037513732910156 56.38237762451172
H 54.469669342041016 46.513771057128906 56.142173767089844
C 52.580501556396484 46.47956848144531 57.24005126953125
H 52.75473403930664 45.45172882080078 57.54789352416992
N 54.488834381103516 49.07726287841797 55.452178955078125
H 55.46707534790039 48.94288635253906 55.65972137451172
C 54.16414260864258 49.77703857421875 54.30105972290039
O 53.01642990112305 50.0782470703125 53.99628448486328
C 55.3876838684082 50.006988525390625 53.389244079589844
C 55.24452590942383 50.68951416015625 52.16038131713867
H 54.24424362182617 51.018760681152344 51.89094543457031
C 56.32901382446289 50.93920135498047 51.34244155883789
C 57.59929275512695 50.378440856933594 51.6866340637207
H 58.460330963134766 50.60481262207031 51.062984466552734
C 57.745548248291016 49.72979736328125 52.91364669799805
H 58.78005599975586 49.44506072998047 53.08766174316406
C 56.63930892944336 49.485809326171875 53.724937438964844
H 56.78044509887695 48.83927917480469 54.587284088134766
C 56.055294036865234 51.49748229980469 50.040313720703125
H 55.00925064086914 51.77244567871094 49.91336441040039
C 56.86368942260742 51.62000274658203 48.95368957519531
H 57.926334381103516 51.40742492675781 49.060970306396484
C 56.502933502197266 52.10734558105469 47.65126419067383
C 55.07835006713867 52.504180908203125 47.3513069152832
H 54.8614387512207 52.55567932128906 46.28230667114258
H 54.89737319946289 53.48236083984375 47.801727294921875
H 54.350589752197266 51.786903381347656 47.73647689819336
C 57.464847564697266 52.352561950683594 46.697628021240234
H 58.51066207885742 52.12151336669922 46.89459991455078
C 57.27326583862305 52.82738494873047 45.340938568115234
H 56.407474517822266 53.43132019042969 45.0733757019043
C 58.336978912353516 52.81402587890625 44.455196380615234
H 59.31075668334961 52.41710662841797 44.73827362060547
C 58.35263442993164 53.499977111816406 43.13226318359375
C 59.69779586791992 53.840553283691406 42.652496337890625
H 60.270389556884766 53.00605010986328 42.24235534667969
H 59.73955154418945 54.581878662109375 41.85177230834961
H 60.22091293334961 54.503753662109375 43.344573974609375
C 57.24594497680664 53.71919250488281 42.4327507019043
H 56.33082962036133 53.28541564941406 42.83317184448242
C 57.142086029052734 54.402557373046875 41.127559661865234
H 58.09786605834961 54.448158264160156 40.60762405395508
C 56.06216812133789 55.020355224609375 40.657859802246094
H 55.18966293334961 54.999114990234375 41.30916976928711
C 56.03554153442383 55.74786376953125 39.392242431640625
H 56.97365951538086 55.770416259765625 38.83966827392578
C 55.01186752319336 56.364845275878906 38.814022064208984
C 53.5815544128418 56.271026611328125 39.352108001708984
H 52.864566802978516 56.75508117675781 38.68571090698242
H 53.36565017700195 55.200782775878906 39.33158874511719
H 53.54268264770508 56.65478515625 40.37371826171875
C 55.07657241821289 57.00245666503906 37.56813430786133
H 54.17525863647461 57.49384307861328 37.20466995239258
C 56.058895111083984 57.10070037841797 36.64965057373047
H 57.05141830444336 56.712989807128906 36.874351501464844
C 55.90727615356445 57.740081787109375 35.35049819946289
H 54.875606536865234 58.046661376953125 35.18437194824219
C 56.75423049926758 57.89649200439453 34.333526611328125
C 58.1934700012207 57.53437805175781 34.398162841796875
H 58.54326248168945 57.433876037597656 33.368595123291016
H 58.77272415161133 58.2347412109375 35.00349044799805
H 58.2598991394043 56.54833984375 34.86266326904297
C 56.34189987182617 58.61607360839844 33.1220588684082
H 57.201045989990234 59.11505889892578 32.676177978515625
C 55.09443283081055 58.821746826171875 32.60812759399414
H 54.23305892944336 58.25663757324219 32.96113967895508
C 54.68049240112305 59.6580810546875 31.466434478759766
C 54.97556686401367 60.934104919433594 31.35279083251953
C 55.80046463012695 61.66532897949219 32.36488342285156
H 55.71615219116211 62.748802185058594 32.25795364379883
H 55.41813278198242 61.55955505371094 33.38227844238281
H 56.87358474731445 61.4642333984375 32.34394073486328
C 54.604793548583984 61.77808380126953 30.145641326904297
H 55.33393478393555 62.56205749511719 29.930694580078125
H 53.661678314208984 62.27845001220703 30.375072479248047
C 54.38368606567383 60.93939971923828 28.88614845275879
H 55.304073333740234 60.48200225830078 28.517166137695312
H 53.994869232177734 61.66046142578125 28.16410255432129
C 53.316341400146484 59.92107391357422 29.235090255737305
H 52.52779769897461 60.583221435546875 29.598712921142578
H 52.98588180541992 59.33360290527344 28.375940322875977
C 53.74299240112305 58.98845672607422 30.412504196166992
C 52.42448806762695 58.45115661621094 30.972614288330078
H 52.55214309692383 57.502830505371094 31.498775482177734
H 52.103092193603516 59.203086853027344 31.696334838867188
H 51.69551467895508 58.272239685058594 30.179487228393555
C 54.44340896606445 57.828651428222656 29.81558609008789
H 54.75896072387695 57.183929443359375 30.638517379760742
H 53.709293365478516 57.3310546875 29.178455352783203
H 55.28242111206055 58.25544738769531 29.262086868286133
