207
Triad, Carotenoid-Porphyrin-C60
C 56.20243453979492 32.71485137939453 52.887882232666016
C 57.22676467895508 39.11564636230469 52.882198333740234
C 56.68574142456055 37.715370178222656 54.58259201049805
C 56.866031646728516 35.376922607421875 55.19597625732422
C 58.09086227416992 38.956764221191406 50.61859893798828
C 57.0775032043457 39.35823059082031 51.47458267211914
C 59.43626022338867 38.30818176269531 52.53126907348633
C 58.89564895629883 36.598365783691406 54.6706657409668
C 58.503963470458984 32.72887420654297 52.60176467895508
C 59.26913070678711 38.383697509765625 51.14458465576172
C 56.74528884887695 33.318702697753906 54.015113830566406
C 57.41458511352539 36.19518280029297 48.390018463134766
C 57.55063247680664 38.313385009765625 49.51154327392578
C 57.566768646240234 33.876953125 48.90747833251953
C 59.33260726928711 33.498268127441406 50.523685455322266
C 58.14950180053711 33.068702697753906 49.895442962646484
C 59.38022232055664 36.793609619140625 49.332725524902344
C 60.18093490600586 37.15252685546875 52.726043701171875
C 59.9628791809082 36.25775146484375 53.79887008666992
C 60.334781646728516 34.40704345703125 52.328617095947266
C 53.40431594848633 36.49577331542969 52.24318313598633
C 54.0090217590332 37.34355926513672 51.15924835205078
C 54.29014205932617 37.03611755371094 53.40311050415039
C 54.963199615478516 38.20941925048828 53.01439666748047
C 55.91669845581055 33.09934997558594 50.2120475769043
C 54.38106918334961 36.81407928466797 49.97530746459961
C 56.07732009887695 34.325416564941406 54.69874954223633
C 56.063167572021484 36.20171356201172 48.58338165283203
C 56.1685676574707 38.37834930419922 49.65846633911133
C 56.19503402709961 33.90834045410156 49.11760330200195
C 54.876407623291016 36.16265869140625 54.336334228515625
C 59.4194450378418 35.443748474121094 49.12494659423828
C 59.962100982666016 34.651451110839844 50.13532257080078
C 59.953311920166016 34.94886779785156 53.56391525268555
C 60.4874382019043 36.5897216796875 51.468563079833984
C 53.37992477416992 34.92616271972656 52.04574966430664
C 53.99284744262695 34.474143981933594 50.79738235473633
C 54.25368118286133 34.23480224609375 53.095035552978516
C 54.812984466552734 33.337928771972656 51.08098220825195
C 59.515079498291016 33.373573303222656 51.888275146484375
C 54.797908782958984 38.42229461669922 51.66278076171875
C 54.837284088134766 34.759666442871094 54.19590377807617
C 54.992855072021484 33.21199035644531 52.418643951416016
C 56.089656829833984 36.53312683105469 54.90552520751953
C 57.13859939575195 32.643157958984375 50.66756820678711
C 54.36689376831055 35.41389465332031 49.76900100708008
C 55.417057037353516 37.26295471191406 49.19517135620117
C 56.166446685791016 38.531028747558594 53.59436798095703
C 55.87775802612305 38.96692657470703 50.90500259399414
C 60.64207077026367 35.19324493408203 51.26216125488281
C 55.457340240478516 35.06791687011719 48.9635124206543
C 57.30941390991211 32.3704833984375 52.00083541870117
C 58.44938278198242 38.639625549316406 53.40113067626953
C 58.119327545166016 37.8077392578125 54.49169921875
C 58.244930267333984 35.43534851074219 54.96590042114258
C 58.1422004699707 33.32127380371094 53.853790283203125
C 58.17905044555664 37.27391052246094 48.835994720458984
C 58.20552444458008 35.090232849121094 48.548736572265625
C 58.89541244506836 34.38079833984375 54.34971237182617
C 59.92252731323242 37.383949279785156 50.48744583129883
C 51.92941665649414 36.802452087402344 52.433956146240234
N 51.17649459838867 35.80181884765625 52.522132873535156
C 51.85006332397461 34.56157684326172 52.13456726074219
H 51.31441116333008 34.2305908203125 51.24116134643555
H 51.690853118896484 33.81037902832031 52.91238784790039
C 50.234073638916016 40.90631103515625 53.00608444213867
C 49.64285659790039 39.91382598876953 52.200843811035156
H 48.639949798583984 39.97407531738281 51.785972595214844
C 50.272701263427734 38.7010498046875 51.88142776489258
H 49.87253189086914 38.00438690185547 51.14924240112305
C 51.4708137512207 38.299964904785156 52.57475662231445
C 51.325626373291016 40.45563507080078 53.76697540283203
H 51.66453170776367 41.087379455566406 54.58404541015625
C 51.95540237426758 39.166908264160156 53.55204391479492
H 52.6406135559082 38.75665283203125 54.289432525634766
C 49.65610122680664 42.26139831542969 53.167537689208984
C 48.33464431762695 42.438438415527344 52.55427551269531
C 47.96835708618164 42.47654724121094 51.2646484375
H 48.627681732177734 42.34803771972656 50.412593841552734
C 46.55039596557617 42.80870819091797 51.21134948730469
H 45.95952224731445 43.00889587402344 50.323646545410156
C 46.1160774230957 42.9869384765625 52.482669830322266
N 47.17219161987305 42.74182891845703 53.283226013183594
H 47.18293380737305 42.75670623779297 54.29405975341797
C 44.899166107177734 43.47880554199219 53.056297302246094
H 43.98276901245117 43.38280487060547 52.4758415222168
C 44.68889236450195 44.24638366699219 54.145965576171875
C 43.41402053833008 44.484779357910156 54.59798812866211
H 42.43881607055664 44.079627990722656 54.3488883972168
C 43.62050247192383 45.410491943359375 55.574466705322266
H 42.8502082824707 45.877098083496094 56.17958068847656
C 44.97417068481445 45.839820861816406 55.54664993286133
N 45.63442611694336 44.9990234375 54.678916931152344
C 45.67923355102539 47.016761779785156 56.117881774902344
C 46.945308685302734 46.894378662109375 56.582672119140625
C 47.54787063598633 47.71784973144531 57.63486862182617
H 47.070491790771484 48.34117126464844 58.38373565673828
C 48.868343353271484 47.38081359863281 57.72635269165039
H 49.68631362915039 47.77533721923828 58.320068359375
C 49.199214935302734 46.39452362060547 56.75175476074219
N 48.00168991088867 46.09528350830078 56.214569091796875
H 47.927310943603516 45.518638610839844 55.38748550415039
C 50.42820358276367 45.872718811035156 56.46955108642578
H 51.251712799072266 46.411598205566406 56.935787200927734
C 50.74117660522461 44.81260681152344 55.444488525390625
C 51.99259567260742 44.436241149902344 54.85746765136719
H 52.93526840209961 44.80982971191406 55.24350357055664
C 51.73908615112305 43.460670471191406 53.908912658691406
H 52.53170394897461 43.04381561279297 53.29636001586914
C 50.36508560180664 43.19560241699219 53.92582321166992
N 49.81662368774414 44.08568572998047 54.738059997558594
C 43.78671646118164 50.91059875488281 55.6844482421875
C 45.08303451538086 50.75273895263672 56.12175750732422
H 45.684452056884766 51.64610290527344 56.2692985534668
C 45.67232894897461 49.498985290527344 56.27492904663086
H 46.72603988647461 49.459373474121094 56.53892135620117
C 45.0491828918457 48.337303161621094 55.884647369384766
C 43.14211654663086 49.79058837890625 55.21612548828125
H 42.150936126708984 49.84648132324219 54.773406982421875
C 43.732601165771484 48.512725830078125 55.369205474853516
H 43.01884841918945 47.72407531738281 55.14524459838867
N 43.314022064208984 52.209388732910156 55.230220794677734
H 43.743778228759766 52.45027160644531 54.34967041015625
C 42.707096099853516 53.11414337158203 56.00822067260742
O 42.35844039916992 52.83386993408203 57.205379486083984
C 42.429012298583984 54.52781677246094 55.39279556274414
C 42.41399002075195 54.71935272216797 53.97290802001953
H 42.74094009399414 53.97550964355469 53.2508544921875
C 42.07175064086914 56.030723571777344 53.505794525146484
C 41.91147232055664 56.98937225341797 54.48723602294922
H 41.76932144165039 58.0015869140625 54.117401123046875
C 41.77305221557617 56.79376983642578 55.860347747802734
H 41.584476470947266 57.57457733154297 56.59270477294922
C 42.075565338134766 55.5330810546875 56.243873596191406
H 41.93758010864258 55.2880859375 57.29387664794922
C 42.12356948852539 56.345001220703125 52.0655517578125
H 42.44191360473633 55.456764221191406 51.521854400634766
C 41.81193161010742 57.46118927001953 51.457176208496094
H 41.419193267822266 58.28340148925781 52.05353927612305
C 41.94551467895508 57.72174835205078 50.00754165649414
C 42.89687728881836 56.77899169921875 49.27352523803711
H 43.70094680786133 57.395179748535156 48.86579513549805
H 42.39339828491211 56.233795166015625 48.472442626953125
H 43.39603042602539 56.05724334716797 49.92344284057617
C 41.41733932495117 58.77900695800781 49.41990661621094
H 40.79428482055664 59.37773132324219 50.082672119140625
C 41.5961799621582 59.26148223876953 48.01861572265625
H 42.04640579223633 58.5616455078125 47.316158294677734
C 41.16172409057617 60.46795654296875 47.68252182006836
H 40.74692153930664 61.052398681640625 48.50245666503906
C 41.091190338134766 61.164581298828125 46.42593765258789
C 40.79921340942383 62.621253967285156 46.532264709472656
H 41.41195297241211 63.210472106933594 45.846824645996094
H 39.72603988647461 62.771995544433594 46.397926330566406
H 41.07290267944336 62.97411346435547 47.528778076171875
C 41.219974517822266 60.56742858886719 45.253448486328125
H 41.40267562866211 59.49458312988281 45.21404266357422
C 41.34638595581055 61.24628448486328 43.966819763183594
H 41.1240348815918 62.30506134033203 43.84235763549805
C 41.706172943115234 60.601348876953125 42.81736755371094
H 41.875980377197266 59.528594970703125 42.896697998046875
C 41.992488861083984 61.20033264160156 41.460899353027344
H 41.6078987121582 62.21526336669922 41.371829986572266
C 42.54579544067383 60.60826873779297 40.380985260009766
C 43.0151252746582 59.17296600341797 40.40068054199219
H 43.78718948364258 59.165306091308594 41.17290115356445
H 42.19223403930664 58.538246154785156 40.736019134521484
H 43.435611724853516 58.77616882324219 39.47428512573242
C 42.955928802490234 61.36054229736328 39.20719909667969
H 43.23525619506836 60.79778289794922 38.31769943237305
C 42.898258209228516 62.68635559082031 39.05088424682617
H 42.60788345336914 63.32904052734375 39.880680084228516
C 43.299381256103516 63.39460754394531 37.815887451171875
H 43.35806655883789 62.719085693359375 36.963741302490234
C 43.697017669677734 64.67518615722656 37.59784698486328
C 43.79512405395508 65.71542358398438 38.65487289428711
H 44.75802993774414 65.75881958007812 39.16809844970703
H 43.6317024230957 66.73011016845703 38.285858154296875
H 42.9788932800293 65.59317779541016 39.36991500854492
C 44.05411911010742 65.09183502197266 36.26426696777344
H 43.85190200805664 66.14581298828125 36.07941818237305
C 44.5230598449707 64.31546020507812 35.260074615478516
H 44.51420974731445 63.22969055175781 35.34334945678711
C 44.978633880615234 64.66557312011719 33.91270065307617
C 44.14287185668945 65.05073547363281 32.94308090209961
C 42.624874114990234 65.1607437133789 33.00006103515625
H 42.29635238647461 65.36146545410156 34.021942138671875
H 42.252864837646484 65.92134857177734 32.31045150756836
H 42.31697463989258 64.17418670654297 32.64740753173828
C 44.5842170715332 65.36092376708984 31.56322479248047
H 44.750736236572266 66.43335723876953 31.442304611206055
H 43.828426361083984 65.04468536376953 30.841251373291016
C 45.97397232055664 64.79753875732422 31.154001235961914
H 46.3064079284668 65.12393951416016 30.166370391845703
H 46.011295318603516 63.70897674560547 31.07588005065918
C 46.969058990478516 65.19627380371094 32.29981994628906
H 48.035160064697266 64.9892349243164 32.18571472167969
H 46.8848762512207 66.27591705322266 32.44034194946289
C 46.51321029663086 64.60834503173828 33.667057037353516
C 47.041873931884766 63.23771667480469 33.95159149169922
H 48.10317611694336 63.20891571044922 33.696109771728516
H 46.91305923461914 63.097328186035156 35.02684020996094
H 46.43845748901367 62.51696014404297 33.395843505859375
C 47.21713638305664 65.52005767822266 34.67707061767578
H 46.860965728759766 65.2942886352539 35.684356689453125
H 48.29434585571289 65.3642578125 34.588714599609375
H 46.965572357177734 66.5702896118164 34.51520919799805
