207
Triad, Carotenoid-Porphyrin-C60
C 35.58823013305664 52.27737045288086 43.30910873413086
C 41.22565841674805 52.32630920410156 40.43396759033203
C 39.264244079589844 51.97208023071289 39.38490295410156
C 36.995914459228516 52.44342803955078 40.005096435546875
C 42.3322868347168 53.257911682128906 42.27804183959961
C 41.99561309814453 52.15745162963867 41.55010223388672
C 41.02702331542969 54.66730880737305 40.78593826293945
C 38.51298904418945 54.32291793823242 39.68480682373047
C 35.98346710205078 54.564422607421875 43.29763412475586
C 41.814910888671875 54.52806091308594 41.921573638916016
C 35.728816986083984 52.76451110839844 42.049373626708984
C 41.015750885009766 53.12642288208008 45.621192932128906
C 42.2772331237793 52.838706970214844 43.6081657409668
C 38.63288116455078 53.653594970703125 46.044063568115234
C 37.679664611816406 55.38753128051758 44.72169494628906
C 37.50813293457031 54.29051208496094 45.571773529052734
C 41.25878143310547 54.920955657958984 44.25599670410156
C 39.972381591796875 55.57108688354492 41.06138610839844
C 38.713863372802734 55.38874053955078 40.477176666259766
C 37.73532485961914 56.02754592895508 42.549217224121094
C 38.8950309753418 48.88021469116211 42.461387634277344
C 40.22766876220703 49.355255126953125 43.08750915527344
C 38.93304443359375 49.630470275878906 41.067543029785156
C 40.17832946777344 50.17635726928711 40.86664581298828
C 37.063941955566406 52.05900192260742 45.60163497924805
C 40.325050354003906 49.9355354309082 44.353782653808594
C 36.26604080200195 51.910438537597656 41.0185661315918
C 40.67919921875 51.73005676269531 45.62147521972656
C 42.01776885986328 51.48080062866211 43.67012405395508
C 38.39067459106445 52.24358367919922 46.12403869628906
C 37.83323287963867 50.3691520690918 40.60655975341797
C 40.064849853515625 55.10118103027344 44.97403335571289
C 38.956295013427734 55.81373977661133 44.44127655029297
C 37.609134674072266 55.570701599121094 41.263946533203125
C 40.09194564819336 55.92878723144531 42.35459518432617
C 37.62153625488281 49.233333587646484 43.336055755615234
C 37.8226318359375 49.925941467285156 44.67652130126953
C 36.700218200683594 50.275814056396484 42.68204116821289
C 36.82246017456055 50.909812927246094 44.80034255981445
C 36.89936828613281 55.52968215942383 43.5960807800293
C 40.9256591796875 50.08214569091797 42.042816162109375
C 36.78816223144531 50.71367645263672 41.39164352416992
C 36.11134719848633 51.08931350708008 43.677616119384766
C 37.98448944091797 51.46117401123047 39.69963073730469
C 36.547515869140625 53.3152961730957 45.241241455078125
C 39.11481475830078 50.18151092529297 45.12736511230469
C 41.26023483276367 50.94230270385742 44.65273666381836
C 40.301902770996094 51.32281494140625 40.05553436279297
C 41.88130569458008 51.03972244262695 42.333740234375
C 38.99658203125 56.20063400268555 43.09196472167969
C 39.36988067626953 51.350582122802734 45.8568000793457
C 35.80522537231445 53.437530517578125 44.096797943115234
C 40.7535514831543 53.54280471801758 40.0035514831543
C 39.52397155761719 53.37028121948242 39.415122985839844
C 37.225685119628906 53.83348846435547 40.03049087524414
C 35.87434005737305 54.137657165527344 41.96348571777344
C 41.842220306396484 53.73594665527344 44.63560485839844
C 39.907989501953125 53.999332427978516 45.767173767089844
C 36.65825653076172 54.66877365112305 40.95558166503906
C 41.2591552734375 55.346927642822266 42.90116882324219
C 38.808284759521484 47.34611892700195 42.35512161254883
N 37.68984603881836 46.85569381713867 42.744895935058594
C 36.973941802978516 47.8642578125 43.5514030456543
H 37.09218215942383 47.59479522705078 44.60404586791992
H 35.89377975463867 47.9474983215332 43.40658950805664
C 41.875919342041016 44.77463912963867 40.88407516479492
C 41.796295166015625 46.10524368286133 40.42496871948242
H 42.51213836669922 46.44898986816406 39.68269348144531
C 40.72673034667969 46.94715881347656 40.87415313720703
H 40.53336715698242 47.915138244628906 40.41896438598633
C 39.827239990234375 46.42357635498047 41.82096481323242
C 40.945735931396484 44.273250579833984 41.817481994628906
H 41.10287857055664 43.292091369628906 42.258174896240234
C 39.932579040527344 45.12233352661133 42.29759979248047
H 39.151588439941406 44.71512222290039 42.93462371826172
C 43.00282287597656 43.83834457397461 40.35752487182617
C 44.00347137451172 44.36012268066406 39.4279899597168
C 43.8809814453125 44.85757064819336 38.155818939208984
H 42.934486389160156 45.03535461425781 37.65605163574219
C 45.21221160888672 45.259708404541016 37.720855712890625
H 45.44187545776367 45.57491683959961 36.708370208740234
C 46.07514953613281 44.819881439208984 38.65904998779297
N 45.31876754760742 44.4276237487793 39.75490951538086
H 45.68906784057617 43.949302673339844 40.564979553222656
C 47.50685119628906 44.5524787902832 38.632469177246094
H 48.03944396972656 45.26557540893555 38.004966735839844
C 48.314212799072266 43.670921325683594 39.277435302734375
C 49.34132766723633 43.055564880371094 38.58364486694336
H 49.780948638916016 43.26765060424805 37.61463165283203
C 49.869998931884766 42.19048309326172 39.46538543701172
H 50.632503509521484 41.48049545288086 39.16250991821289
C 49.07521057128906 42.21593475341797 40.64015579223633
N 48.13007736206055 43.1273193359375 40.53931427001953
C 49.08756637573242 41.10009002685547 41.61219024658203
C 48.07912063598633 40.21665954589844 41.63364028930664
C 48.05325698852539 38.81861114501953 41.89716720581055
H 48.96476364135742 38.23802185058594 41.993614196777344
C 46.79500198364258 38.36115264892578 42.07344436645508
H 46.47699737548828 37.34151077270508 42.264305114746094
C 45.89252471923828 39.43612289428711 41.821746826171875
N 46.7244873046875 40.485904693603516 41.65185546875
H 46.412052154541016 41.42040252685547 41.425540924072266
C 44.5692253112793 39.44844436645508 41.66566848754883
H 43.950252532958984 38.58405685424805 41.90153884887695
C 43.643402099609375 40.530792236328125 41.296348571777344
C 42.27375793457031 40.49164962768555 41.0265998840332
H 41.79829788208008 39.53074264526367 41.193416595458984
C 41.860435485839844 41.727783203125 40.649139404296875
H 40.85491943359375 41.99498748779297 40.34130096435547
C 42.95936965942383 42.553123474121094 40.72789001464844
N 43.99646759033203 41.806785583496094 41.08726119995117
C 52.48589324951172 41.07586669921875 44.22090530395508
C 51.504981994628906 40.12812805175781 44.39904022216797
H 51.79722213745117 39.231964111328125 44.94038391113281
C 50.401065826416016 40.22799301147461 43.60981369018555
H 49.69221878051758 39.41065979003906 43.715023040771484
C 50.252769470214844 41.16230773925781 42.584842681884766
C 52.36904525756836 42.073524475097656 43.243343353271484
H 53.13630294799805 42.840232849121094 43.17229461669922
C 51.21929168701172 42.14706802368164 42.43225860595703
H 51.07373046875 42.910560607910156 41.6723518371582
N 53.56032943725586 41.08424758911133 45.10512161254883
H 53.6181526184082 41.97107696533203 45.58290100097656
C 54.62437057495117 40.30398941040039 45.33181381225586
O 54.77417755126953 39.32741165161133 44.62746047973633
C 55.6207275390625 40.83285140991211 46.25662612915039
C 55.22792053222656 41.67316436767578 47.345985412597656
H 54.234859466552734 42.065147399902344 47.55030822753906
C 56.22893142700195 42.20598602294922 48.17327880859375
C 57.58476257324219 41.972713470458984 47.861209869384766
H 58.27799987792969 42.463294982910156 48.53968048095703
C 57.94660186767578 41.05936813354492 46.926429748535156
H 59.00065231323242 40.911376953125 46.70587921142578
C 56.942779541015625 40.46097946166992 46.09783935546875
H 57.259788513183594 39.816017150878906 45.28230285644531
C 55.85295867919922 43.19953536987305 49.20779037475586
H 54.765716552734375 43.184566497802734 49.26784133911133
C 56.64520263671875 43.96281433105469 50.011077880859375
H 57.72956848144531 43.90651321411133 49.927955627441406
C 56.16480255126953 44.775882720947266 51.11101150512695
C 54.72095489501953 45.08900451660156 51.0547981262207
H 54.3922233581543 45.98375701904297 51.5875358581543
H 54.170257568359375 44.233524322509766 51.451473236083984
H 54.51102828979492 45.30678939819336 50.005531311035156
C 56.97254943847656 45.22139358520508 52.08962631225586
H 58.03785705566406 44.99700164794922 52.06333923339844
C 56.58006286621094 45.99570083618164 53.29593276977539
H 55.52816390991211 46.12226486206055 53.54774475097656
C 57.44448471069336 46.397361755371094 54.188865661621094
H 58.501007080078125 46.26388168334961 53.96113204956055
C 57.20554733276367 47.12333679199219 55.44529724121094
C 55.87263488769531 46.941856384277344 56.14971923828125
H 55.940460205078125 47.252525329589844 57.19439697265625
H 55.136539459228516 47.63767623901367 55.741722106933594
H 55.52436447143555 45.90707015991211 56.1298828125
C 58.139408111572266 47.92426681518555 55.95613098144531
H 59.10634994506836 47.916404724121094 55.45524978637695
C 58.163421630859375 48.787994384765625 57.115779876708984
H 57.29454040527344 48.751625061035156 57.77125549316406
C 59.15657043457031 49.5926399230957 57.41958236694336
H 59.95411682128906 49.64026641845703 56.67959976196289
C 59.135108947753906 50.375083923339844 58.65159225463867
H 58.297523498535156 50.14246368408203 59.30754470825195
C 60.08426284790039 51.132667541503906 59.203521728515625
C 61.359004974365234 51.45037078857422 58.62724685668945
H 61.569339752197266 52.507972717285156 58.45492172241211
H 62.1279182434082 51.102108001708984 59.32003402709961
H 61.620697021484375 50.96012878417969 57.68722152709961
C 59.79774856567383 51.807044982910156 60.44207763671875
H 58.79237365722656 51.61259078979492 60.81266403198242
C 60.555267333984375 52.66123580932617 61.2027473449707
H 61.56464385986328 52.80748748779297 60.821048736572266
C 60.124629974365234 53.28788757324219 62.44865417480469
H 59.05959701538086 53.162132263183594 62.637908935546875
C 60.87685012817383 53.96424865722656 63.374351501464844
C 62.31744384765625 54.206119537353516 63.29964065551758
H 62.53337478637695 55.273807525634766 63.37630081176758
H 62.82941436767578 53.64078903198242 64.08114624023438
H 62.68587875366211 53.812320709228516 62.350093841552734
C 60.38157272338867 54.59162902832031 64.60688018798828
H 61.215476989746094 54.76982116699219 65.2842025756836
C 59.08982849121094 54.966156005859375 64.88262939453125
H 58.32388687133789 54.79844665527344 64.12689208984375
C 58.459022521972656 55.6423225402832 66.0313949584961
C 58.7847785949707 55.400516510009766 67.3336410522461
C 59.91101837158203 54.53654098510742 67.86591339111328
H 60.0240364074707 53.61089324951172 67.29769897460938
H 60.84440231323242 55.083526611328125 67.71736907958984
H 60.0087890625 54.26837158203125 68.91995239257812
C 58.26310348510742 56.224971771240234 68.47476196289062
H 59.03113555908203 56.993186950683594 68.58624267578125
H 58.10919952392578 55.56711196899414 69.3326644897461
C 56.90946960449219 56.73227310180664 68.13760375976562
H 56.45475387573242 57.313846588134766 68.94225311279297
H 56.168922424316406 55.9506950378418 67.95542907714844
C 57.05253982543945 57.59420394897461 66.84469604492188
H 56.0907096862793 58.101749420166016 66.7459716796875
H 57.77069091796875 58.41618728637695 66.8774185180664
C 57.383121490478516 56.72435760498047 65.61189270019531
C 56.090484619140625 56.1657600402832 65.0507583618164
H 55.82037353515625 55.30076217651367 65.66009521484375
H 55.36552047729492 56.98221206665039 65.06790924072266
H 56.27224349975586 55.8560676574707 64.01949310302734
C 57.77984619140625 57.7013053894043 64.5217056274414
H 58.71525192260742 58.196022033691406 64.79141998291016
H 58.081974029541016 57.125579833984375 63.64436721801758
H 56.93321228027344 58.3360710144043 64.25199127197266
