207
Triad, Carotenoid-Porphyrin-C60
C 55.27964782714844 43.813472747802734 47.064388275146484
C 54.72539520263672 46.496952056884766 41.20426940917969
C 54.43096923828125 47.52317810058594 43.1921272277832
C 55.152076721191406 47.07570266723633 45.54246520996094
C 55.70656967163086 44.55482864379883 40.21392822265625
C 54.593685150146484 45.34552001953125 40.35922622680664
C 57.14485549926758 46.22096252441406 41.30796813964844
C 56.836544036865234 47.37246322631836 43.872032165527344
C 57.460182189941406 43.956199645996094 46.4965934753418
C 56.961212158203125 44.97194290161133 40.636878967285156
C 55.614315032958984 45.16927719116211 46.84537124633789
C 55.93118667602539 41.36846160888672 41.75094985961914
C 55.41264724731445 43.192928314208984 40.29888153076172
C 56.56687545776367 40.95817565917969 43.9852294921875
C 58.283447265625 42.43953323364258 44.67902374267578
C 57.26083755493164 41.57669448852539 45.01541519165039
C 57.62455368041992 42.77266311645508 41.20549011230469
C 58.07210159301758 46.019187927246094 42.303855895996094
C 57.970638275146484 46.63003158569336 43.54638671875
C 58.829864501953125 44.606502532958984 44.56671142578125
C 51.69526290893555 44.32963562011719 44.00209426879883
C 52.168827056884766 43.698490142822266 42.63099670410156
C 52.415653228759766 45.70182800292969 43.843017578125
C 52.81895446777344 45.85078811645508 42.501853942871094
C 55.06389617919922 41.43646240234375 45.54569625854492
C 52.65784454345703 42.43748092651367 42.56354904174805
C 54.68667221069336 46.06282043457031 46.41724395751953
C 54.56731033325195 41.27485275268555 42.071598052978516
C 54.06982421875 43.158058166503906 40.67605209350586
C 55.22048568725586 40.88430404663086 44.333492279052734
C 53.116859436035156 46.32225036621094 44.867034912109375
C 57.960391998291016 42.073341369628906 42.35771942138672
C 58.6707878112793 42.6755256652832 43.40400314331055
C 58.329586029052734 45.916221618652344 44.672401428222656
C 58.586822509765625 44.73139953613281 42.157379150390625
C 52.16854476928711 43.568965911865234 45.206077575683594
C 52.94069290161133 42.26698303222656 44.95942687988281
C 53.141021728515625 44.287933349609375 46.12918472290039
C 53.942344665527344 42.18510437011719 45.89335632324219
C 58.31563949584961 43.656375885009766 45.40061569213867
C 52.710208892822266 44.69294357299805 41.772003173828125
C 53.48607635498047 45.64603805541992 46.01192855834961
C 54.067787170410156 43.38982391357422 46.60363006591797
C 54.1551513671875 47.209625244140625 44.54314041137695
C 56.27663803100586 41.982269287109375 45.97299575805664
C 53.066864013671875 41.688907623291016 43.71749496459961
C 53.62697982788086 42.22520065307617 41.563411712646484
C 53.76618957519531 46.766910552978516 42.18794631958008
C 53.58080291748047 44.45347595214844 40.749446868896484
C 58.93484878540039 44.03250503540039 43.30492401123047
C 54.2331428527832 40.99357986450195 43.3895378112793
C 56.41322326660156 43.127166748046875 46.783935546875
C 55.95759582519531 46.95635986328125 41.578975677490234
C 55.795570373535156 47.54361343383789 42.86885070800781
C 56.53642654418945 47.16444778442383 45.15446472167969
C 56.99250793457031 45.25166320800781 46.55898666381836
C 56.3676643371582 42.295982360839844 40.81812286376953
C 56.88896942138672 41.20418930053711 42.67717742919922
C 57.42483901977539 46.22650146484375 45.68152618408203
C 57.885414123535156 44.103904724121094 41.16674041748047
C 50.18364334106445 44.33171463012695 44.19858169555664
N 49.78703689575195 43.72720718383789 45.25094223022461
C 50.899478912353516 43.35430908203125 46.08257293701172
H 50.72034454345703 42.28657531738281 46.23259353637695
H 50.80821228027344 44.00290298461914 46.957584381103516
C 47.20229721069336 45.432411193847656 41.312286376953125
C 47.14110565185547 44.22345733642578 42.00221252441406
H 46.25471496582031 43.601951599121094 41.904170989990234
C 48.056793212890625 43.9423942565918 42.970821380615234
H 47.892181396484375 43.12094497680664 43.663421630859375
C 49.22787094116211 44.729400634765625 43.12922286987305
C 48.33323669433594 46.29698181152344 41.53128433227539
H 48.42897033691406 47.24043273925781 40.99995422363281
C 49.37167739868164 45.916996002197266 42.434329986572266
H 50.265769958496094 46.53017807006836 42.512901306152344
C 46.15310287475586 45.79147720336914 40.28752136230469
C 44.94580841064453 44.90665817260742 40.1739387512207
C 44.7749137878418 43.559295654296875 40.045833587646484
H 45.58794021606445 42.84504318237305 39.968048095703125
C 43.40545654296875 43.332576751708984 40.06003189086914
H 42.92560577392578 42.36212921142578 39.987918853759766
C 42.75981903076172 44.5512580871582 39.99708557128906
N 43.71561813354492 45.49870300292969 40.09259796142578
H 43.45418930053711 46.47038650512695 40.19061279296875
C 41.285621643066406 44.93971633911133 40.00657272338867
H 40.63645553588867 44.07244873046875 40.117733001708984
C 40.68156051635742 46.19246292114258 40.06473159790039
C 39.28807067871094 46.40180969238281 39.94581604003906
H 38.5383415222168 45.63547134399414 39.7789192199707
C 39.16215896606445 47.70622634887695 40.325767517089844
H 38.2457160949707 48.26888656616211 40.469879150390625
C 40.49921798706055 48.269344329833984 40.47783279418945
N 41.398258209228516 47.321006774902344 40.27445602416992
C 40.87823486328125 49.66335678100586 40.71171569824219
C 41.91229248046875 50.253360748291016 39.9645881652832
C 41.87067794799805 51.43100357055664 39.18977355957031
H 41.06421661376953 52.15647506713867 39.1666259765625
C 43.039573669433594 51.4904670715332 38.487937927246094
H 43.213863372802734 52.20895767211914 37.693817138671875
C 43.85696792602539 50.33720016479492 38.695152282714844
N 43.1434326171875 49.70060348510742 39.66297149658203
H 43.43593215942383 48.796810150146484 40.009002685546875
C 45.063724517822266 49.93525314331055 38.16372299194336
H 45.466209411621094 50.51633071899414 37.335304260253906
C 45.788360595703125 48.68571853637695 38.38930892944336
C 47.0474853515625 48.16707229614258 37.84326171875
H 47.537837982177734 48.6358757019043 36.99650192260742
C 47.23665237426758 46.93491744995117 38.45804977416992
H 48.06085205078125 46.26839065551758 38.22639083862305
C 46.26118850708008 46.8369026184082 39.45387649536133
N 45.433868408203125 47.878299713134766 39.40160369873047
C 39.39198684692383 51.71396255493164 44.236122131347656
C 40.1955451965332 52.41202926635742 43.32585906982422
H 40.362178802490234 53.48484420776367 43.3794059753418
C 40.68986511230469 51.69951248168945 42.242191314697266
H 41.17842483520508 52.31901168823242 41.49445343017578
C 40.413108825683594 50.352291107177734 41.929752349853516
C 39.093746185302734 50.34772872924805 44.032806396484375
H 38.451725006103516 49.82938003540039 44.74040222167969
C 39.590965270996094 49.6796760559082 42.90420913696289
H 39.201717376708984 48.67903518676758 42.734554290771484
N 38.94318771362305 52.49433517456055 45.37432861328125
H 39.67892074584961 52.63685989379883 46.049949645996094
C 37.75531005859375 53.02214431762695 45.616634368896484
O 36.85292053222656 52.9587287902832 44.82876968383789
C 37.635948181152344 53.80051803588867 46.91880416870117
C 38.68369674682617 53.82919692993164 47.86357879638672
H 39.65016174316406 53.40853500366211 47.59794616699219
C 38.601104736328125 54.42092514038086 49.04263687133789
C 37.42552185058594 55.04121780395508 49.31993103027344
H 37.29481506347656 55.54497146606445 50.27424621582031
C 36.33542251586914 55.045352935791016 48.470802307128906
H 35.37997817993164 55.51115798950195 48.69821548461914
C 36.395599365234375 54.31863021850586 47.32007598876953
H 35.537567138671875 54.23794937133789 46.657623291015625
C 39.738372802734375 54.25327682495117 49.97540283203125
H 40.48876953125 53.599918365478516 49.53274154663086
C 39.862709045410156 54.7042350769043 51.25183868408203
H 39.052398681640625 55.34029006958008 51.605045318603516
C 40.93989181518555 54.41855239868164 52.14406204223633
C 41.95947265625 53.4973258972168 51.57919692993164
H 41.47096252441406 52.59121322631836 51.21480178833008
H 42.7177619934082 53.22359848022461 52.315765380859375
H 42.56660461425781 54.02707290649414 50.8421630859375
C 40.9991569519043 54.97291946411133 53.35009765625
H 40.210044860839844 55.66177749633789 53.647918701171875
C 42.033626556396484 54.87661361694336 54.371543884277344
H 42.73389434814453 54.053218841552734 54.238956451416016
C 42.05625915527344 55.46079635620117 55.52605438232422
H 41.31195068359375 56.18193435668945 55.86054229736328
C 43.077579498291016 55.2702751159668 56.575836181640625
C 42.73445510864258 55.87874221801758 57.936649322509766
H 42.44312286376953 55.159175872802734 58.70463562011719
H 43.63676452636719 56.38241958618164 58.28965377807617
H 42.02265930175781 56.70112228393555 57.83917236328125
C 44.22447204589844 54.535709381103516 56.46917724609375
H 44.3709602355957 54.0794792175293 55.49126052856445
C 45.173377990722656 54.25637435913086 57.53535461425781
H 45.024208068847656 54.746517181396484 58.496307373046875
C 46.18953323364258 53.332820892333984 57.41684341430664
H 46.2360725402832 52.692134857177734 56.53748321533203
C 47.15237808227539 53.09943771362305 58.46122360229492
H 47.006126403808594 53.657840728759766 59.38465118408203
C 48.172119140625 52.22391891479492 58.47079849243164
C 48.447391510009766 51.41257095336914 57.32418441772461
H 47.57149887084961 50.79214096069336 57.12333679199219
H 48.73564529418945 52.057437896728516 56.49140548706055
H 49.29385757446289 50.77473831176758 57.58709716796875
C 49.0824089050293 52.1472053527832 59.573055267333984
H 48.66474533081055 52.34140396118164 60.559852600097656
C 50.402198791503906 52.07548141479492 59.50830841064453
H 50.94764709472656 52.10404586791992 58.56618881225586
C 51.25558853149414 51.97419357299805 60.71217727661133
H 50.74711608886719 51.75173568725586 61.64913558959961
C 52.56413650512695 52.121036529541016 60.7485466003418
C 53.36334991455078 52.24790573120117 59.47336959838867
H 54.41109085083008 51.98672103881836 59.63610076904297
H 53.10966873168945 51.5247917175293 58.69541549682617
H 53.32564163208008 53.245479583740234 59.0307731628418
C 53.43975067138672 52.09828567504883 61.95161056518555
H 54.517173767089844 52.12319564819336 61.79520797729492
C 53.081634521484375 51.6541862487793 63.20757293701172
H 52.02078628540039 51.42387771606445 63.29405212402344
C 53.96562957763672 51.39816665649414 64.30931854248047
C 54.83880615234375 52.326107025146484 64.72775268554688
C 55.03310012817383 53.750362396240234 64.28280639648438
H 54.80757141113281 54.384708404541016 65.142578125
H 56.074012756347656 53.838436126708984 63.96467971801758
H 54.35326385498047 54.05984878540039 63.48624801635742
C 55.92031478881836 52.0003547668457 65.71562957763672
H 55.63813400268555 52.28239822387695 66.73213958740234
H 56.79145812988281 52.63508224487305 65.54043579101562
C 56.1859245300293 50.51961135864258 65.8918685913086
H 56.87226104736328 50.19948959350586 66.6785888671875
H 56.63088607788086 50.0262336730957 65.02523803710938
C 54.78897476196289 49.91349411010742 66.2596664428711
H 54.9358024597168 48.89091873168945 66.61354064941406
H 54.312686920166016 50.469852447509766 67.06965637207031
C 53.86577224731445 50.03703689575195 65.02176666259766
C 54.19076156616211 48.86268997192383 64.0689468383789
H 53.606605529785156 48.91035842895508 63.147560119628906
H 55.22031021118164 48.9729118347168 63.72203063964844
H 54.120201110839844 47.876888275146484 64.53336334228516
C 52.52400588989258 49.61825180053711 65.47431945800781
H 52.50053024291992 48.7544059753418 66.14192199707031
H 51.98860549926758 50.42776870727539 65.97480773925781
H 51.913021087646484 49.33244705200195 64.61555480957031
