207
Triad, Carotenoid-Porphyrin-C60
C 50.541961669921875 42.522193908691406 62.3618278503418
C 55.694664001464844 41.95844650268555 58.74492263793945
C 55.57203674316406 42.08327102661133 60.93033218383789
C 53.99431228637695 41.7144775390625 62.583003997802734
C 54.298980712890625 41.412803649902344 56.8623161315918
C 55.039817810058594 42.32286834716797 57.547245025634766
C 54.73177719116211 39.794490814208984 58.5102424621582
C 54.59195327758789 39.864463806152344 61.21809005737305
C 50.297157287597656 40.32341003417969 61.81035232543945
C 54.1129150390625 40.15529251098633 57.32892990112305
C 51.59901809692383 41.8719596862793 62.8868522644043
C 50.83244323730469 42.25786590576172 56.568729400634766
C 53.2325325012207 42.08904266357422 56.32139205932617
C 49.234214782714844 41.85942077636719 58.337894439697266
C 49.64045715332031 39.833282470703125 59.59804153442383
C 48.99143600463867 41.073238372802734 59.46555709838867
C 51.774803161621094 40.24119186401367 56.75029373168945
C 53.869110107421875 38.885704040527344 59.14687728881836
C 53.79146194458008 38.94915771484375 60.5312614440918
C 51.405513763427734 38.73069381713867 60.41981887817383
C 53.45026397705078 45.76280975341797 60.196109771728516
C 53.42266082763672 45.3919677734375 58.708194732666016
C 54.411617279052734 44.73743438720703 60.76261520385742
C 55.12821578979492 44.12046432495117 59.69453811645508
C 49.29489517211914 43.24406814575195 60.06186294555664
C 52.22527313232422 45.10288619995117 58.014339447021484
C 52.85158157348633 42.440181732177734 62.90513229370117
C 50.978607177734375 43.59910202026367 56.89567947387695
C 53.375770568847656 43.450199127197266 56.65574264526367
C 49.32328796386719 43.20350646972656 58.648075103759766
C 54.176353454589844 43.88939666748047 61.83662033081055
C 50.536869049072266 40.149513244628906 57.3348503112793
C 50.409786224365234 39.370582580566406 58.47660446166992
C 52.58189392089844 38.87080001831055 61.16592025756836
C 52.72214126586914 38.73228454589844 58.3810920715332
C 52.005435943603516 45.594482421875 60.865108489990234
C 50.84782791137695 45.11071014404297 60.02139663696289
C 51.8980712890625 44.501129150390625 61.9415168762207
C 50.04561996459961 44.232383728027344 60.76064682006836
C 50.25094985961914 39.432334899902344 60.74888229370117
C 54.43572235107422 44.47019958496094 58.53548049926758
C 52.96355438232422 43.75138854980469 62.383426666259766
C 50.65500259399414 43.83676528930664 61.90227127075195
C 54.84549331665039 42.64799118041992 61.94559860229492
C 49.05866241455078 41.95647430419922 60.53229904174805
C 51.037315368652344 44.93428421020508 58.6736946105957
C 52.255470275878906 44.16934585571289 56.9864387512207
C 55.69874954223633 42.84312057495117 59.810611724853516
C 54.46018981933594 43.5460205078125 57.434749603271484
C 51.45586395263672 38.653751373291016 59.01084518432617
C 50.23809814453125 44.05332565307617 57.9519157409668
C 49.7307014465332 41.61065673828125 61.727474212646484
C 55.4913330078125 40.71844482421875 59.218021392822266
C 55.461181640625 40.716732025146484 60.59092330932617
C 53.79415512084961 40.39290237426758 62.25751876831055
C 51.431610107421875 40.506534576416016 62.53299331665039
C 51.95030212402344 41.553131103515625 56.31551742553711
C 50.008968353271484 41.418373107910156 57.29619216918945
C 52.56519317626953 39.7830696105957 62.217891693115234
C 52.871402740478516 39.53107833862305 57.26487350463867
C 53.79536437988281 47.182044982910156 60.461978912353516
N 52.85708236694336 47.811031341552734 61.05336380004883
C 51.7497444152832 46.95943832397461 61.45769119262695
H 50.78679275512695 47.38359451293945 61.16193771362305
H 51.75003433227539 46.828392028808594 62.54280471801758
C 56.739898681640625 49.57316970825195 58.265323638916016
C 56.9058952331543 48.149864196777344 58.42587661743164
H 57.822486877441406 47.62016677856445 58.179195404052734
C 55.92171859741211 47.40534210205078 59.05660629272461
H 56.0816764831543 46.33024978637695 59.06923294067383
C 54.8570556640625 47.972591400146484 59.74728775024414
C 55.61684036254883 50.13734436035156 58.9742317199707
H 55.344581604003906 51.18162155151367 58.8441047668457
C 54.79224395751953 49.33231735229492 59.72861099243164
H 53.99782943725586 49.79295349121094 60.310237884521484
C 57.59022521972656 50.40964126586914 57.40262222290039
C 58.689857482910156 49.68465042114258 56.750553131103516
C 59.84969711303711 49.07390213012695 57.083683013916016
H 60.17002487182617 48.80464553833008 58.08474349975586
C 60.46005630493164 48.458003997802734 55.91427230834961
H 61.31754684448242 47.79724884033203 55.84122848510742
C 59.699974060058594 48.90442657470703 54.82182693481445
N 58.69459533691406 49.655059814453125 55.38527297973633
H 58.15528869628906 50.225868225097656 54.7485237121582
C 60.07526779174805 48.94709014892578 53.401485443115234
H 60.94971466064453 48.31253433227539 53.26509475708008
C 59.67983627319336 49.73887634277344 52.354732513427734
C 60.09313201904297 49.691104888916016 51.01325607299805
H 60.93794631958008 49.08380126953125 50.70551681518555
C 59.25525665283203 50.43926239013672 50.28628921508789
H 59.317691802978516 50.628414154052734 49.219730377197266
C 58.27762222290039 51.04973602294922 51.18815231323242
N 58.58640670776367 50.668846130371094 52.47042465209961
C 57.29619598388672 52.162261962890625 50.870243072509766
C 57.0382080078125 53.17650604248047 51.711795806884766
C 57.133453369140625 54.653709411621094 51.5468864440918
H 57.36859130859375 55.08092498779297 50.5776481628418
C 56.82646942138672 55.269691467285156 52.7079963684082
H 56.80397415161133 56.3386344909668 52.89261245727539
C 56.7702751159668 54.25751876831055 53.72953414916992
N 56.839630126953125 53.1268424987793 53.07350540161133
H 56.796382904052734 52.271602630615234 53.61091995239258
C 56.78420639038086 54.51321029663086 55.05826950073242
H 56.724586486816406 55.578514099121094 55.27622604370117
C 56.91010284423828 53.60087966918945 56.160640716552734
C 56.956966400146484 53.88611602783203 57.570133209228516
H 56.76484298706055 54.8516845703125 58.02619552612305
C 57.19504928588867 52.614707946777344 58.113834381103516
H 57.413414001464844 52.38272476196289 59.151004791259766
C 57.194984436035156 51.67864990234375 57.13070297241211
N 57.01815414428711 52.27528381347656 55.97224807739258
C 55.00014114379883 51.890987396240234 47.1573371887207
C 54.82200241088867 53.00350570678711 47.9657096862793
H 54.22101593017578 53.757137298583984 47.46328353881836
C 55.59123229980469 53.12019729614258 49.15632247924805
H 55.46251678466797 53.9780387878418 49.8113899230957
C 56.51553726196289 52.08872985839844 49.586910247802734
C 55.8010368347168 50.893043518066406 47.62607192993164
H 55.890560150146484 50.004783630371094 47.00594711303711
C 56.46672821044922 50.9575309753418 48.839298248291016
H 57.02053451538086 50.119041442871094 49.2537956237793
N 54.47719955444336 51.901634216308594 45.7869758605957
H 55.12409591674805 52.24929428100586 45.09507369995117
C 53.24633026123047 51.43122482299805 45.458370208740234
O 52.472076416015625 51.131256103515625 46.3529167175293
C 52.87799072265625 51.37355041503906 43.97743606567383
C 51.529048919677734 51.23149490356445 43.63753128051758
H 50.76729965209961 51.4046516418457 44.39339065551758
C 51.162933349609375 50.90235137939453 42.35051345825195
C 52.108333587646484 50.869075775146484 41.365013122558594
H 51.776710510253906 50.764915466308594 40.335086822509766
C 53.447574615478516 51.03435134887695 41.66130447387695
H 54.221092224121094 50.935646057128906 40.90400695800781
C 53.80721664428711 51.185733795166016 43.0014533996582
H 54.82774353027344 51.03435134887695 43.3437614440918
C 49.68973159790039 50.9018669128418 42.0819206237793
H 49.07946014404297 51.08467483520508 42.96513748168945
C 49.1162109375 50.71368408203125 40.858673095703125
H 49.766510009765625 50.51203918457031 40.008750915527344
C 47.75541305541992 50.633975982666016 40.51758575439453
C 46.77695083618164 51.04036331176758 41.52339553833008
H 47.08177947998047 51.233280181884766 42.5540885925293
H 45.91460037231445 50.373443603515625 41.459922790527344
H 46.34580612182617 52.0023307800293 41.23843765258789
C 47.36201095581055 50.46797180175781 39.266395568847656
H 48.15631103515625 50.33744430541992 38.532928466796875
C 46.0604362487793 50.47873306274414 38.66187286376953
H 45.23576354980469 50.76279830932617 39.313899993896484
C 45.85737991333008 50.1854133605957 37.387638092041016
H 46.69334030151367 49.97110366821289 36.72343063354492
C 44.5400505065918 50.289649963378906 36.76274108886719
C 44.63290786743164 50.44651412963867 35.284061431884766
H 44.40577697753906 51.44880294799805 34.91489028930664
H 45.63348388671875 50.346832275390625 34.858177185058594
H 43.92011642456055 49.79085159301758 34.77958679199219
C 43.38149642944336 50.38457489013672 37.400909423828125
H 43.39483642578125 50.372947692871094 38.48976516723633
C 42.12675094604492 50.62115478515625 36.789493560791016
H 42.12655258178711 50.991493225097656 35.76539993286133
C 40.9539909362793 50.55180358886719 37.4439811706543
H 40.967647552490234 50.20017623901367 38.47455978393555
C 39.64510726928711 50.77084732055664 36.78845977783203
H 39.66995620727539 51.54652786254883 36.024505615234375
C 38.48736572265625 50.206459045410156 37.156951904296875
C 38.49021911621094 49.2374153137207 38.27883529663086
H 39.487876892089844 48.827293395996094 38.448951721191406
H 38.25819396972656 49.711727142333984 39.23469161987305
H 37.805213928222656 48.400882720947266 38.125709533691406
C 37.24893569946289 50.374637603759766 36.3869514465332
H 36.41720962524414 49.79530334472656 36.78510665893555
C 36.89375305175781 51.20828628540039 35.364871978759766
H 37.67674255371094 51.82542037963867 34.926700592041016
C 35.4913444519043 51.40140914916992 34.82334518432617
H 34.70355987548828 50.87148666381836 35.35673522949219
C 35.060848236083984 52.105552673339844 33.764122009277344
C 35.93207550048828 52.96113967895508 32.90528106689453
H 36.943206787109375 52.55158615112305 32.85695266723633
H 35.67074203491211 52.80925750732422 31.85594940185547
H 35.98191833496094 54.00293731689453 33.2287712097168
C 33.64759826660156 52.2470588684082 33.577552795410156
H 33.032470703125 51.800479888916016 34.357364654541016
C 32.9305305480957 52.85759735107422 32.658607482910156
H 33.48927688598633 53.20588302612305 31.791187286376953
C 31.471187591552734 53.16618728637695 32.6645622253418
C 30.434782028198242 52.48401641845703 33.1961555480957
C 30.549545288085938 51.02219772338867 33.56260299682617
H 29.776123046875 50.387210845947266 33.125484466552734
H 31.513193130493164 50.73711395263672 33.135311126708984
H 30.708087921142578 50.89137268066406 34.63508224487305
C 28.9875545501709 52.89501953125 33.27527618408203
H 28.67163848876953 52.81211471557617 34.31728744506836
H 28.36568832397461 52.0522575378418 32.966251373291016
C 28.64163589477539 54.233280181884766 32.61241912841797
H 27.781923294067383 54.50357437133789 33.22910690307617
H 28.456602096557617 54.04618453979492 31.552597045898438
C 29.89140510559082 55.206851959228516 32.74320983886719
H 29.57505989074707 56.118988037109375 32.2329216003418
H 29.949546813964844 55.48442840576172 33.79774475097656
C 31.19489288330078 54.66590118408203 32.216190338134766
C 31.14242172241211 54.94145965576172 30.68210220336914
H 31.0873966217041 56.01076889038086 30.467613220214844
H 32.08686828613281 54.66963577270508 30.206069946289062
H 30.258838653564453 54.43516540527344 30.287879943847656
C 32.28765106201172 55.66395568847656 32.70450210571289
H 33.33226013183594 55.433799743652344 32.48475646972656
H 32.16625213623047 56.60554885864258 32.16493606567383
H 32.154964447021484 55.791038513183594 33.78093719482422
