207
Triad, Carotenoid-Porphyrin-C60
C 32.308326721191406 58.749637603759766 49.68421936035156
C 34.555423736572266 54.74155044555664 45.4329833984375
C 33.67819595336914 54.305179595947266 47.40599060058594
C 32.27390670776367 55.30971145629883 49.01378631591797
C 34.518165588378906 56.38716506958008 43.765968322753906
C 35.201133728027344 55.60773849487305 44.62254333496094
C 32.4557991027832 55.320316314697266 44.394981384277344
C 31.33540916442871 54.65787124633789 46.81645965576172
C 30.53240394592285 58.742977142333984 48.264366149902344
C 33.103885650634766 56.22452926635742 43.59709930419922
C 31.70981788635254 57.5037727355957 49.72180938720703
C 34.523681640625 59.929569244384766 44.35620880126953
C 35.09331512451172 57.639896392822266 43.717254638671875
C 33.09516143798828 60.89824295043945 46.043296813964844
C 30.974853515625 59.82987594604492 46.11494445800781
C 31.938190460205078 60.655277252197266 46.778045654296875
C 32.915828704833984 58.586177825927734 43.405433654785156
C 31.170473098754883 55.76791763305664 44.65879821777344
C 30.64328956604004 55.40199661254883 45.906280517578125
C 29.94694709777832 57.788265228271484 46.08882141113281
C 36.62942886352539 57.049747467041016 48.78916931152344
C 36.94160079956055 57.34157943725586 47.272918701171875
C 35.72907638549805 55.77878952026367 48.60169219970703
C 35.85245132446289 55.28532028198242 47.32054901123047
C 33.646697998046875 60.67850875854492 48.259315490722656
C 36.789432525634766 58.62764358520508 46.74688720703125
C 32.50822830200195 56.3860969543457 49.86486053466797
C 35.54469680786133 59.88447952270508 45.28654479980469
C 36.183956146240234 57.659671783447266 44.57804870605469
C 34.148162841796875 60.92634963989258 46.98600769042969
C 34.49690246582031 55.5678596496582 49.25861358642578
C 32.28911590576172 59.54463577270508 44.164154052734375
C 31.13452911376953 59.33871841430664 44.86558532714844
C 30.047765731811523 56.51070022583008 46.65166473388672
C 31.168109893798828 57.024051666259766 44.096282958984375
C 35.93342208862305 58.15505599975586 49.606689453125
C 35.626441955566406 59.3863410949707 48.757911682128906
C 34.51372528076172 57.785282135009766 50.108673095703125
C 34.35185623168945 59.8074836730957 49.01622009277344
C 30.2254581451416 58.88736343383789 46.89280700683594
C 36.549617767333984 56.23971939086914 46.49993896484375
C 33.869773864746094 56.5175895690918 50.048240661621094
C 33.691890716552734 58.86992263793945 49.773223876953125
C 33.51795959472656 54.8534049987793 48.68475341796875
C 32.23554229736328 60.44758987426758 48.13793182373047
C 36.12385177612305 59.636356353759766 47.48296356201172
C 36.39787292480469 58.793270111083984 45.390167236328125
C 34.842830657958984 54.5369758605957 46.75341033935547
C 36.19073486328125 56.4104118347168 45.13429260253906
C 30.553447723388672 58.05525588989258 44.85430908203125
C 35.32497787475586 60.394954681396484 46.559722900390625
C 31.53315544128418 59.48283767700195 48.81226348876953
C 33.194793701171875 54.5532112121582 45.30201721191406
C 32.634613037109375 54.28445053100586 46.50532531738281
C 31.19239044189453 55.27804946899414 48.13459014892578
C 30.65712547302246 57.509395599365234 48.796783447265625
C 34.27392578125 58.772586822509766 43.59623718261719
C 33.28563690185547 60.42497634887695 44.716590881347656
C 30.402164459228516 56.40383529663086 47.990325927734375
C 32.36885452270508 57.338680267333984 43.46443176269531
C 37.905452728271484 56.73305130004883 49.617462158203125
N 38.08572006225586 57.491878509521484 50.568519592285156
C 37.00645065307617 58.46931076049805 50.70220947265625
H 37.41965103149414 59.481075286865234 50.68628692626953
H 36.431304931640625 58.40696334838867 51.629554748535156
C 40.0328483581543 53.17827224731445 48.565521240234375
C 40.43210983276367 54.39143753051758 47.894081115722656
H 41.19875717163086 54.52614974975586 47.135353088378906
C 39.7008056640625 55.56478500366211 48.23674774169922
H 39.86015701293945 56.47382736206055 47.66246032714844
C 38.7946662902832 55.587825775146484 49.31055450439453
C 39.143577575683594 53.25516891479492 49.67530822753906
H 38.90044021606445 52.3624382019043 50.245826721191406
C 38.55464172363281 54.476810455322266 50.06433868408203
H 37.85367202758789 54.54074478149414 50.892669677734375
C 40.50954055786133 51.845821380615234 48.13475036621094
C 41.67580795288086 51.7733268737793 47.250694274902344
C 41.82737731933594 52.161502838134766 45.93297576904297
H 41.051368713378906 52.59737014770508 45.31244659423828
C 43.08308029174805 51.64841079711914 45.43316650390625
H 43.27589797973633 51.63357925415039 44.36553955078125
C 43.732696533203125 51.015254974365234 46.398170471191406
N 42.91598892211914 51.20589065551758 47.509559631347656
H 43.19645690917969 50.66299057006836 48.31498718261719
C 44.92539978027344 50.16159439086914 46.248748779296875
H 45.44138717651367 50.375125885009766 45.31382751464844
C 45.425262451171875 49.18577194213867 47.06310272216797
C 46.52112579345703 48.39041519165039 46.71051788330078
H 46.950923919677734 48.369075775146484 45.714508056640625
C 46.7430305480957 47.539546966552734 47.75624084472656
H 47.34312057495117 46.6356086730957 47.756141662597656
C 45.75593566894531 47.92744064331055 48.8182373046875
N 45.021461486816406 48.94381332397461 48.3565673828125
C 45.5153923034668 47.26620101928711 50.10125732421875
C 44.23429489135742 47.056331634521484 50.478492736816406
C 43.711036682128906 45.85738754272461 50.988319396972656
H 44.364559173583984 45.026546478271484 51.232948303222656
C 42.343162536621094 45.9265022277832 51.06907653808594
H 41.63140869140625 45.16215133666992 51.36302947998047
C 41.81834030151367 47.127925872802734 50.53114318847656
N 43.0028190612793 47.72587966918945 50.21595001220703
H 43.01933670043945 48.62223434448242 49.748634338378906
C 40.546043395996094 47.58327102661133 50.453834533691406
H 39.81312942504883 46.887264251708984 50.859230041503906
C 40.0930061340332 48.81703567504883 49.844703674316406
C 38.728538513183594 49.2552604675293 49.650184631347656
H 37.91849899291992 48.541446685791016 49.75761413574219
C 38.78191375732422 50.379459381103516 48.94141387939453
H 37.926334381103516 50.89292526245117 48.51531982421875
C 40.0899658203125 50.67628860473633 48.769676208496094
N 40.858978271484375 49.730892181396484 49.27930450439453
C 48.79612731933594 46.32644271850586 52.773956298828125
C 47.51967239379883 46.27061080932617 53.244415283203125
H 47.31052780151367 45.75107955932617 54.17603302001953
C 46.462955474853516 46.66542434692383 52.38434600830078
H 45.49488067626953 46.35029220581055 52.7652587890625
C 46.65741729736328 47.10648727416992 51.05913543701172
C 49.07939147949219 46.92649459838867 51.59941864013672
H 50.12777328491211 46.9761848449707 51.31659698486328
C 48.041893005371094 47.406856536865234 50.749298095703125
H 48.306602478027344 47.92258071899414 49.82977294921875
N 49.7864990234375 45.74565505981445 53.64301300048828
H 49.40201950073242 45.62357711791992 54.56786346435547
C 51.0161247253418 45.206966400146484 53.4237060546875
O 51.60175323486328 45.3739128112793 52.37879943847656
C 51.62749099731445 44.48722457885742 54.60484313964844
C 52.88041687011719 43.98847579956055 54.54387664794922
H 53.48675537109375 44.19401931762695 53.665428161621094
C 53.38834762573242 43.173282623291016 55.57379913330078
C 52.632667541503906 42.92567825317383 56.69291687011719
H 53.09563064575195 42.40044021606445 57.524391174316406
C 51.28959655761719 43.3935661315918 56.761322021484375
H 50.55497360229492 43.28803634643555 57.55552673339844
C 50.78579330444336 44.07217025756836 55.66648864746094
H 49.72511672973633 44.3097038269043 55.67726135253906
C 54.69560241699219 42.468441009521484 55.25342559814453
H 55.037532806396484 42.723995208740234 54.25157165527344
C 55.434417724609375 41.563777923583984 55.96039581298828
H 55.081764221191406 41.15279769897461 56.90520477294922
C 56.76555633544922 41.1075325012207 55.625511169433594
C 57.43233871459961 40.37197494506836 56.69866180419922
H 58.34613037109375 40.85847854614258 57.046165466308594
H 57.79560089111328 39.4024543762207 56.351478576660156
H 56.77975845336914 40.01047134399414 57.49610900878906
C 57.383277893066406 41.280330657958984 54.44969940185547
H 56.833953857421875 41.71843338012695 53.61769104003906
C 58.75870895385742 40.989437103271484 54.16242980957031
H 59.32682418823242 40.37156295776367 54.85626220703125
C 59.45161056518555 41.51167678833008 53.12586975097656
H 58.890235900878906 42.15913772583008 52.453880310058594
C 60.8876838684082 41.49142837524414 52.86048126220703
C 61.93552017211914 41.1133918762207 53.87184143066406
H 62.30351257324219 40.11189651489258 53.639366149902344
H 62.791481018066406 41.791072845458984 53.8485107421875
H 61.62196350097656 41.26115798950195 54.907371520996094
C 61.28895568847656 41.86910629272461 51.65196228027344
H 60.547386169433594 42.03085708618164 50.87104797363281
C 62.67647171020508 41.952144622802734 51.10343933105469
H 63.50993347167969 41.57197189331055 51.69227600097656
C 62.959556579589844 42.45041275024414 49.879920959472656
H 62.08964920043945 42.661312103271484 49.259674072265625
C 64.23246002197266 42.346134185791016 49.27203369140625
H 65.09034729003906 42.167659759521484 49.91864776611328
C 64.52240753173828 42.42402267456055 47.961639404296875
C 63.4352912902832 42.70761489868164 46.962547302246094
H 62.70512008666992 41.8956413269043 46.96026611328125
H 62.94692611694336 43.676334381103516 47.087257385253906
H 63.771121978759766 42.61957931518555 45.927207946777344
C 65.87813568115234 42.194271087646484 47.39458465576172
H 66.65936279296875 42.33284378051758 48.14051055908203
C 66.24153137207031 41.55239486694336 46.262672424316406
H 65.44734191894531 41.23429489135742 45.58887481689453
C 67.58110046386719 41.24308395385742 45.791473388671875
H 68.44464111328125 41.82009506225586 46.11901092529297
C 67.95867919921875 40.30146408081055 44.937583923339844
C 67.0552749633789 39.25041580200195 44.454811096191406
H 66.52112579345703 39.70603561401367 43.61841583251953
H 67.57546997070312 38.32161331176758 44.21153259277344
H 66.4666748046875 39.046634674072266 45.35175323486328
C 69.3393783569336 40.057254791259766 44.58167266845703
H 69.5966796875 39.52736282348633 43.665740966796875
C 70.43296813964844 40.50065994262695 45.25677490234375
H 70.20882415771484 41.0784797668457 46.15220642089844
C 71.82186889648438 40.27907943725586 44.91059875488281
C 72.2113265991211 40.294612884521484 43.660362243652344
C 71.54682159423828 40.82602310180664 42.35602569580078
H 70.75391387939453 40.150753021240234 42.02771759033203
H 71.09989166259766 41.812381744384766 42.496788024902344
H 72.1446533203125 40.9120979309082 41.44627380371094
C 73.6352767944336 39.83046340942383 43.25688934326172
H 74.09065246582031 40.57526779174805 42.600860595703125
H 73.56324768066406 38.93863296508789 42.630859375
C 74.66302490234375 39.391544342041016 44.397430419921875
H 75.18058013916016 40.2383918762207 44.85289764404297
H 75.43927764892578 38.67991256713867 44.108497619628906
C 73.791748046875 38.81663131713867 45.55535125732422
H 73.17900848388672 37.9758415222168 45.223548889160156
H 74.41897583007812 38.40275192260742 46.34766387939453
C 72.73220825195312 39.87517166137695 46.047752380371094
C 71.93330383300781 39.08186721801758 47.15470886230469
H 71.28873443603516 39.692317962646484 47.79058837890625
H 71.35231018066406 38.27421188354492 46.70458221435547
H 72.62580871582031 38.60432815551758 47.85102844238281
C 73.4673843383789 40.966732025146484 46.76799011230469
H 73.80171203613281 41.729000091552734 46.06114196777344
H 72.76264953613281 41.45951461791992 47.44102478027344
H 74.30901336669922 40.59292984008789 47.35484313964844
