207
Triad, Carotenoid-Porphyrin-C60
C 55.11610412597656 62.22785568237305 56.804080963134766
C 49.49976348876953 60.64567184448242 59.39920425415039
C 51.60078430175781 59.89835739135742 59.92604064941406
C 53.90351104736328 60.5161247253418 59.64548873901367
C 48.417579650878906 62.545413970947266 58.30880355834961
C 48.72679138183594 61.22639846801758 58.35763931274414
C 49.77140808105469 62.8553352355957 60.31206512451172
C 52.34306335449219 61.93610763549805 60.94506072998047
C 54.718780517578125 64.02971649169922 58.11079025268555
C 48.9571647644043 63.42941665649414 59.29389953613281
C 55.13456726074219 61.79141616821289 58.11674880981445
C 49.79485321044922 64.27250671386719 55.43104553222656
C 48.44322204589844 62.92317581176758 56.95636749267578
C 52.19574737548828 64.90463256835938 55.19409942626953
C 53.06402587890625 65.5743408203125 57.31711959838867
C 53.26172637939453 65.17962646484375 55.937374114990234
C 49.531005859375 65.02840423583984 57.5861930847168
C 50.82646942138672 63.737125396728516 60.583248138427734
C 52.08673858642578 63.2912483215332 60.86223220825195
C 53.01130676269531 65.01138305664062 59.49266052246094
C 51.80451202392578 58.995304107666016 55.74213409423828
C 50.55652618408203 59.84611892700195 55.55731964111328
C 51.83049774169922 58.83255386352539 57.23616027832031
C 50.64441680908203 59.17940139770508 57.76901626586914
C 53.66990661621094 63.27524948120117 54.72504425048828
C 50.426597595214844 60.966121673583984 54.742103576660156
C 54.610435485839844 60.5837516784668 58.458648681640625
C 50.073265075683594 63.10592269897461 54.65023422241211
C 48.70963668823242 61.836605072021484 56.206180572509766
C 52.430450439453125 63.766475677490234 54.343833923339844
C 52.953514099121094 59.15254592895508 58.05832290649414
C 50.71674346923828 65.50697326660156 57.07570266723633
C 51.83771514892578 65.77092742919922 57.84400177001953
C 53.21959686279297 63.92148971557617 60.33995056152344
C 50.661781311035156 64.78365325927734 59.62675857543945
C 53.10553741455078 59.69899368286133 55.15623474121094
C 52.890533447265625 60.99263381958008 54.43601608276367
C 54.146636962890625 60.13998031616211 56.161556243896484
C 53.87738037109375 61.93092727661133 54.80614471435547
C 53.84892272949219 65.05442810058594 58.35792922973633
C 49.81684112548828 59.76259231567383 56.7628288269043
C 54.10276794433594 59.73337173461914 57.505638122558594
C 54.591270446777344 61.37556838989258 55.80992126464844
C 52.85718536376953 59.60098648071289 59.35960388183594
C 54.15196990966797 64.17085266113281 55.710052490234375
C 51.61152648925781 61.52925491333008 54.18418884277344
C 49.53614044189453 61.933895111083984 55.0481071472168
C 50.480369567871094 59.65871810913086 59.09724807739258
C 48.925437927246094 60.7868766784668 57.05934524536133
C 51.75535583496094 65.48307800292969 59.17208480834961
C 51.392852783203125 62.86557388305664 54.17857360839844
C 54.88093566894531 63.5683708190918 56.7725830078125
C 49.988548278808594 61.47855758666992 60.362213134765625
C 51.30841064453125 61.03559494018555 60.73246383666992
C 53.620025634765625 61.6708869934082 60.416744232177734
C 54.85942077636719 62.973751068115234 58.89326477050781
C 49.03982162475586 64.15589904785156 56.61731719970703
C 50.89849090576172 65.13163757324219 55.713008880615234
C 54.15770721435547 62.891910552978516 60.053985595703125
C 49.47826385498047 64.62590789794922 58.910465240478516
C 51.711395263671875 57.681514739990234 54.87693786621094
N 52.69013977050781 57.53432083129883 54.07720184326172
C 53.679527282714844 58.57223892211914 54.200767517089844
H 53.96717071533203 58.97574234008789 53.22655487060547
H 54.60938262939453 58.25955581665039 54.68267822265625
C 47.989051818847656 55.617618560791016 54.94902420043945
C 48.15167999267578 56.74197769165039 54.1532096862793
H 47.338966369628906 57.187618255615234 53.5853385925293
C 49.400848388671875 57.39530563354492 54.13610076904297
H 49.480316162109375 58.36563491821289 53.65266418457031
C 50.51307678222656 56.86616897583008 54.83663558959961
C 49.140777587890625 55.138797760009766 55.60017776489258
H 49.03532791137695 54.212520599365234 56.15915298461914
C 50.421722412109375 55.70817947387695 55.543357849121094
H 51.27961730957031 55.37233352661133 56.1202392578125
C 46.62617492675781 54.9609260559082 55.143978118896484
C 45.53578567504883 55.4470100402832 54.32023239135742
C 44.9315185546875 56.696773529052734 54.15310287475586
H 45.310428619384766 57.605037689208984 54.60993957519531
C 43.810672760009766 56.48258590698242 53.31422805786133
H 43.1539421081543 57.24274826049805 52.90424346923828
C 43.74589538574219 55.11013412475586 53.033546447753906
N 44.836910247802734 54.502620697021484 53.5540771484375
H 45.118770599365234 53.536563873291016 53.457008361816406
C 43.018714904785156 54.46062088012695 51.99270248413086
H 42.49132537841797 55.17306900024414 51.36008071899414
C 42.69057083129883 53.132259368896484 51.80935287475586
C 42.25851058959961 52.65804672241211 50.593875885009766
H 42.183265686035156 53.21965408325195 49.668582916259766
C 42.31778335571289 51.298641204833984 50.72874069213867
H 42.35343933105469 50.579524993896484 49.91706466674805
C 42.705360412597656 50.86454391479492 52.05967712402344
N 42.938873291015625 52.07455062866211 52.70709991455078
C 42.94487762451172 49.484004974365234 52.61159896850586
C 43.64876174926758 49.325069427490234 53.790828704833984
C 43.495670318603516 48.23019027709961 54.70920944213867
H 42.856380462646484 47.36590576171875 54.56242752075195
C 44.16218948364258 48.596927642822266 55.88149642944336
H 44.32265090942383 48.099769592285156 56.83245086669922
C 44.70055389404297 49.86980056762695 55.7771110534668
N 44.423866271972656 50.21479415893555 54.46384048461914
H 44.71155548095703 51.07097244262695 54.009613037109375
C 45.24685287475586 50.58664321899414 56.82156753540039
H 45.42387771606445 50.09260940551758 57.77577590942383
C 45.76454162597656 51.96537399291992 56.7499885559082
C 46.41128921508789 52.6909065246582 57.8471794128418
H 46.591407775878906 52.393436431884766 58.874942779541016
C 46.859806060791016 53.852848052978516 57.2691535949707
H 47.39934158325195 54.626888275146484 57.80486297607422
C 46.407466888427734 53.87270736694336 55.99159240722656
N 45.76865005493164 52.69112777709961 55.665122985839844
C 41.41099166870117 46.034767150878906 50.37608337402344
C 42.60208511352539 45.92921829223633 51.1851806640625
H 43.08134078979492 44.954830169677734 51.23474884033203
C 43.118045806884766 47.037330627441406 51.87242889404297
H 44.05537033081055 46.98430252075195 52.420318603515625
C 42.409332275390625 48.31963348388672 51.85331344604492
C 40.86959457397461 47.27241134643555 50.20333480834961
H 39.979427337646484 47.30051803588867 49.58012771606445
C 41.363372802734375 48.355953216552734 50.891754150390625
H 40.79788589477539 49.28403854370117 50.87049102783203
N 40.94068908691406 44.95855712890625 49.55616760253906
H 39.9433479309082 45.073177337646484 49.454833984375
C 41.55363845825195 43.821197509765625 49.08417892456055
O 42.79487991333008 43.662071228027344 49.219810485839844
C 40.732364654541016 42.81321716308594 48.306617736816406
C 41.3010368347168 41.97853088378906 47.390403747558594
H 42.35623550415039 42.044578552246094 47.13788986206055
C 40.6266975402832 40.9438591003418 46.85906982421875
C 39.30149841308594 40.78137969970703 47.205772399902344
H 38.71430587768555 39.95119857788086 46.821617126464844
C 38.64138412475586 41.64568328857422 48.078189849853516
H 37.610328674316406 41.554874420166016 48.410221099853516
C 39.38373947143555 42.703182220458984 48.5745964050293
H 38.96217727661133 43.38361358642578 49.31003189086914
C 41.35514450073242 39.95078659057617 45.9764289855957
H 42.38482666015625 40.256507873535156 45.79694747924805
C 41.04737091064453 38.79901885986328 45.31874084472656
H 40.112728118896484 38.28517532348633 45.53858184814453
C 41.940895080566406 38.07249450683594 44.33959197998047
C 41.427696228027344 36.67306137084961 44.126197814941406
H 40.73838424682617 36.276512145996094 44.87457275390625
H 42.2817497253418 35.99412536621094 44.17219161987305
H 41.12052536010742 36.43959426879883 43.10463333129883
C 43.043453216552734 38.581539154052734 43.69443130493164
H 43.14213562011719 39.654449462890625 43.85269546508789
C 43.9734992980957 37.93571090698242 42.781227111816406
H 43.83366012573242 36.9300651550293 42.38747787475586
C 45.05790328979492 38.63551330566406 42.423980712890625
H 45.17173767089844 39.66032791137695 42.774295806884766
C 46.040435791015625 38.10561752319336 41.51201248168945
C 47.20603942871094 38.95016098022461 41.308414459228516
H 47.27058410644531 39.050086975097656 40.2229118347168
H 47.055442810058594 39.979652404785156 41.639984130859375
H 48.10026550292969 38.495262145996094 41.73955154418945
C 46.049354553222656 36.96278381347656 40.864322662353516
H 45.223941802978516 36.28142166137695 41.065216064453125
C 47.06734848022461 36.41511154174805 39.95032501220703
H 48.02835464477539 36.927337646484375 39.9454460144043
C 47.009830474853516 35.29107666015625 39.1511344909668
H 46.099422454833984 34.695274353027344 39.10535430908203
C 48.0052375793457 34.8758430480957 38.108551025390625
H 48.8746452331543 35.53159713745117 38.11435317993164
C 48.097923278808594 33.92311096191406 37.196563720703125
C 47.032958984375 32.90383529663086 36.99026870727539
H 47.20884704589844 32.252899169921875 36.131309509277344
H 46.993507385253906 32.333160400390625 37.920448303222656
H 46.09579849243164 33.454254150390625 36.8842887878418
C 49.31907653808594 33.63017272949219 36.373199462890625
H 49.20188903808594 32.923858642578125 35.552642822265625
C 50.513160705566406 34.20743942260742 36.29459762573242
H 50.760711669921875 35.017738342285156 36.97874069213867
C 51.631866455078125 33.74729537963867 35.41950607299805
H 51.37523651123047 32.90949249267578 34.77286148071289
C 52.872581481933594 34.186824798583984 35.312591552734375
C 53.43717956542969 35.19085693359375 36.25825881958008
H 54.382362365722656 35.652645111083984 35.96525573730469
H 52.67913818359375 35.9692497253418 36.367530822753906
H 53.42767333984375 34.85002899169922 37.29566192626953
C 53.798179626464844 33.62900924682617 34.34218215942383
H 53.37773132324219 32.89876174926758 33.652339935302734
C 55.11005401611328 33.96478271484375 34.01799392700195
H 55.71038818359375 34.67942810058594 34.579063415527344
C 55.884185791015625 33.30484390258789 32.94322204589844
C 56.239967346191406 31.99542808532715 32.972251892089844
C 55.99725341796875 31.020593643188477 34.12385940551758
H 55.70445251464844 30.04252815246582 33.736392974853516
H 56.92444610595703 30.83294105529785 34.66936111450195
H 55.217864990234375 31.33687400817871 34.82027053833008
C 57.042213439941406 31.226011276245117 31.872146606445312
H 56.437835693359375 30.45897102355957 31.383438110351562
H 57.890586853027344 30.70598030090332 32.32192611694336
C 57.540748596191406 32.14228057861328 30.750289916992188
H 57.39878845214844 31.557947158813477 29.838768005371094
H 58.59202575683594 32.406982421875 30.881500244140625
C 56.5740966796875 33.341068267822266 30.56861686706543
H 56.72028350830078 33.900054931640625 29.641992568969727
H 55.63976287841797 32.797855377197266 30.412395477294922
C 56.37199401855469 34.24652862548828 31.787307739257812
C 57.67720031738281 35.042274475097656 32.09488296508789
H 57.83061218261719 35.69624710083008 31.233928680419922
H 57.50172424316406 35.58811950683594 33.02425003051758
H 58.567718505859375 34.41665267944336 32.18452072143555
C 55.422157287597656 35.28181838989258 31.359909057617188
H 55.81089782714844 35.93415069580078 30.575176239013672
H 54.50536346435547 34.79288101196289 31.023914337158203
H 55.129432678222656 35.91855239868164 32.1973762512207
