207
Triad, Carotenoid-Porphyrin-C60
C 58.64960479736328 32.97441864013672 48.462947845458984
C 52.22152328491211 31.997493743896484 49.20283126831055
C 53.26639175415039 32.90092468261719 47.33797836303711
C 55.56874465942383 32.86406707763672 46.5191535949707
C 52.675594329833984 30.730758666992188 51.28236770629883
C 52.31486892700195 31.937816619873047 50.62498092651367
C 53.011783599853516 29.78997802734375 49.085819244384766
C 54.35481643676758 30.78876495361328 46.819637298583984
C 58.57829284667969 30.699779510498047 48.2473030090332
C 53.074180603027344 29.64627456665039 50.49130630493164
C 57.851688385009766 32.66162109375 47.365055084228516
C 55.75346374511719 30.972217559814453 53.117427825927734
C 53.460975646972656 31.12847137451172 52.3684196472168
C 58.00849914550781 30.896377563476562 52.251712799072266
C 58.090721130371094 29.590381622314453 50.328617095947266
C 58.68247985839844 30.56995391845703 51.07187271118164
C 54.91653060913086 29.25377655029297 52.00358963012695
C 54.12053298950195 29.104713439941406 48.614322662353516
C 54.75841522216797 29.570213317871094 47.465816497802734
C 56.849586486816406 29.023265838623047 48.48775863647461
C 55.00654602050781 35.700218200683594 50.116451263427734
C 54.38976287841797 34.87720489501953 51.23337936401367
C 54.28728103637695 35.005714416503906 48.95317459106445
C 53.27292251586914 34.22911834716797 49.392757415771484
C 58.77521896362305 32.795684814453125 51.212459564208984
C 55.12898254394531 34.32909393310547 52.3006477355957
C 56.7237548828125 33.467018127441406 47.027950286865234
C 55.80280685424805 32.373802185058594 53.22654342651367
C 53.498985290527344 32.53093719482422 52.434207916259766
C 58.04375076293945 32.29401397705078 52.294193267822266
C 54.923667907714844 34.64759063720703 47.78451156616211
C 56.30508041381836 29.17871856689453 51.93144607543945
C 56.94569396972656 28.9310302734375 50.73105239868164
C 56.105552673339844 29.55746841430664 47.45083236694336
C 54.84569549560547 28.607738494873047 49.6591911315918
C 56.6195182800293 35.58380126953125 50.110904693603516
C 57.2864875793457 34.737464904785156 51.15019607543945
C 57.13913345336914 34.89910888671875 48.8786506652832
C 58.30094909667969 34.019012451171875 50.636478424072266
C 58.09512710571289 29.549091339111328 48.93832015991211
C 53.2396354675293 34.21342468261719 50.78529739379883
C 56.33269500732422 34.59757995605469 47.77066421508789
C 58.233272552490234 34.07177734375 49.23043441772461
C 54.44752502441406 33.58312225341797 46.98459243774414
C 59.14273452758789 31.713703155517578 50.447017669677734
C 56.563838958740234 34.22332763671875 52.21273422241211
C 54.70148468017578 33.144630432128906 52.856266021728516
C 52.75653839111328 33.161521911621094 48.613765716552734
C 52.8253173828125 33.03485870361328 51.3680305480957
C 56.1920051574707 28.555622100830078 49.6381721496582
C 56.95598602294922 33.019874572753906 52.82585525512695
C 59.03282928466797 31.796829223632812 49.04232406616211
C 52.56067657470703 30.92242431640625 48.407779693603516
C 53.25553894042969 31.46674346923828 47.254642486572266
C 55.567867279052734 31.433727264404297 46.47115707397461
C 57.80916976928711 31.25916290283203 47.250797271728516
C 54.52801513671875 30.32379150390625 52.75556564331055
C 56.870750427246094 30.26087188720703 52.60111618041992
C 56.64530944824219 30.671955108642578 46.82682418823242
C 54.16268539428711 28.883132934570312 50.84438705444336
C 54.67526626586914 37.14491271972656 50.13088607788086
N 55.720985412597656 37.91973114013672 50.1107063293457
C 56.93169403076172 37.104835510253906 50.27872085571289
H 57.38797378540039 37.43797302246094 51.21438980102539
H 57.62416076660156 37.32433319091797 49.462039947509766
C 50.695682525634766 38.759483337402344 49.51765823364258
C 50.9947624206543 37.89191436767578 50.57050704956055
H 50.16724395751953 37.590431213378906 51.20760726928711
C 52.282752990722656 37.364654541015625 50.8131217956543
H 52.55459213256836 36.719078063964844 51.64432144165039
C 53.313968658447266 37.69187927246094 49.940792083740234
C 51.78889465332031 39.10235595703125 48.76632308959961
H 51.62159729003906 39.74360656738281 47.90471267700195
C 53.09580993652344 38.60621643066406 48.90793228149414
H 53.88521957397461 38.82262420654297 48.192691802978516
C 49.316017150878906 39.195579528808594 49.25435256958008
C 48.27454376220703 38.80244445800781 50.222896575927734
C 47.71781921386719 37.648681640625 50.62491226196289
H 48.2130126953125 36.710662841796875 50.396610260009766
C 46.63385772705078 37.868736267089844 51.48257064819336
H 46.03273010253906 37.165306091308594 52.049198150634766
C 46.2819938659668 39.21791076660156 51.39841079711914
N 47.4057731628418 39.750701904296875 50.72628402709961
H 47.41954040527344 40.75438690185547 50.60567855834961
C 45.26869201660156 40.01499938964844 52.08415603637695
H 44.4514045715332 39.402259826660156 52.461666107177734
C 44.94438934326172 41.36454772949219 51.96287155151367
C 43.72047805786133 41.93907928466797 52.442874908447266
H 42.88109588623047 41.44145965576172 52.9172477722168
C 43.67726516723633 43.177757263183594 51.88933181762695
H 42.9149055480957 43.941375732421875 52.00295639038086
C 44.96806716918945 43.40514373779297 51.26881790161133
N 45.735435485839844 42.30906677246094 51.30324935913086
C 45.440494537353516 44.544044494628906 50.47391891479492
C 45.75687026977539 44.39674377441406 49.17367935180664
C 45.17839813232422 45.029624938964844 48.03176498413086
H 44.3646240234375 45.747230529785156 48.02553176879883
C 45.72407150268555 44.427001953125 46.88875198364258
H 45.36603927612305 44.474098205566406 45.8656120300293
C 46.69925308227539 43.46083068847656 47.27920913696289
N 46.59272766113281 43.411964416503906 48.601871490478516
H 47.17729187011719 42.84845733642578 49.20425033569336
C 47.409847259521484 42.62408447265625 46.51845169067383
H 47.18116760253906 42.722190856933594 45.4582633972168
C 48.252288818359375 41.54791259765625 46.90720748901367
C 48.71984100341797 40.47112274169922 46.06418228149414
H 48.472660064697266 40.33363342285156 45.01669692993164
C 49.17631912231445 39.531700134277344 46.8925895690918
H 49.479610443115234 38.53040313720703 46.605098724365234
C 49.05160903930664 40.0 48.17238998413086
N 48.43982696533203 41.173919677734375 48.14414596557617
C 44.97045135498047 48.570831298828125 52.06331253051758
C 45.527252197265625 48.36975860595703 50.774417877197266
H 45.90454864501953 49.22288513183594 50.21638870239258
C 45.66954803466797 47.06794738769531 50.23526382446289
H 46.06608200073242 47.05072021484375 49.223323822021484
C 45.23420715332031 45.957672119140625 50.9764518737793
C 44.61111068725586 47.49310302734375 52.792232513427734
H 44.1955680847168 47.708656311035156 53.77326583862305
C 44.7171745300293 46.20410919189453 52.27969741821289
H 44.33174514770508 45.35731506347656 52.841793060302734
N 44.895442962646484 49.79161071777344 52.61642837524414
H 45.39321517944336 49.82966613769531 53.49326705932617
C 44.41257858276367 50.92640686035156 52.0616569519043
O 43.98213195800781 50.98982238769531 50.97218704223633
C 44.532962799072266 52.19470977783203 52.85112380981445
C 44.50117111206055 53.389068603515625 52.168392181396484
H 44.350059509277344 53.40464782714844 51.09206008911133
C 44.6255989074707 54.59065246582031 52.81392288208008
C 44.844810485839844 54.57623291015625 54.20978927612305
H 45.01129150390625 55.534568786621094 54.69502639770508
C 44.96583938598633 53.4168701171875 54.90529251098633
H 45.03042221069336 53.37677764892578 55.989627838134766
C 44.688011169433594 52.22676086425781 54.237491607666016
H 44.708621978759766 51.27276611328125 54.75810623168945
C 44.55815505981445 55.85308074951172 52.04288864135742
H 44.614227294921875 55.646453857421875 50.97513961791992
C 44.497840881347656 57.169410705566406 52.40993881225586
H 44.46717071533203 57.47663116455078 53.45425796508789
C 44.390628814697266 58.26373291015625 51.46086502075195
C 43.69514846801758 58.000770568847656 50.201107025146484
H 43.00374221801758 58.81352233886719 49.96904373168945
H 43.07781219482422 57.100364685058594 50.22610855102539
H 44.40851593017578 57.979881286621094 49.37459182739258
C 44.730369567871094 59.50701904296875 51.80073928833008
H 45.076908111572266 59.634376525878906 52.825252532958984
C 44.570655822753906 60.73541259765625 51.019771575927734
H 44.24891662597656 60.67948913574219 49.980892181396484
C 44.766380310058594 61.94236755371094 51.55789566040039
H 44.98862838745117 61.89356994628906 52.62285232543945
C 44.73435974121094 63.27198028564453 50.899356842041016
C 45.50876235961914 64.19371795654297 51.74601364135742
H 46.58546829223633 64.20796203613281 51.5644416809082
H 45.13425827026367 65.21098327636719 51.61417770385742
H 45.32872009277344 64.13146209716797 52.82126235961914
C 44.16552734375 63.52831268310547 49.713321685791016
H 43.749210357666016 62.69523620605469 49.14888381958008
C 44.131526947021484 64.8254623413086 49.03085708618164
H 44.538658142089844 65.66958618164062 49.58549118041992
C 43.721981048583984 65.03097534179688 47.754451751708984
H 43.32370376586914 64.18951416015625 47.18943405151367
C 43.835533142089844 66.32038879394531 47.056758880615234
H 44.198184967041016 67.18536376953125 47.61013412475586
C 43.555477142333984 66.53742218017578 45.75156021118164
C 42.90583038330078 65.41471862792969 44.96675491333008
H 43.61536407470703 64.58809661865234 45.042354583740234
H 41.92298889160156 65.23884582519531 45.40896224975586
H 42.875362396240234 65.7023696899414 43.91376876831055
C 43.80108642578125 67.7515869140625 45.00620651245117
H 43.87605285644531 67.62996673583984 43.92661666870117
C 44.14877700805664 68.9780502319336 45.5308952331543
H 44.247215270996094 69.03873443603516 46.61374282836914
C 44.37712860107422 70.15916442871094 44.75735855102539
H 43.99103546142578 69.96299743652344 43.758174896240234
C 45.05039978027344 71.31128692626953 44.97849655151367
C 45.79987335205078 71.5205078125 46.2423210144043
H 46.083229064941406 70.57947540283203 46.71835708618164
H 46.65594482421875 72.19811248779297 46.22080612182617
H 45.03152084350586 71.94198608398438 46.89381790161133
C 45.00181579589844 72.46673583984375 44.10110855102539
H 45.628360748291016 73.30166625976562 44.4113655090332
C 44.216941833496094 72.59790802001953 42.97786331176758
H 43.62591552734375 71.70511627197266 42.77903366088867
C 44.046958923339844 73.74481201171875 42.08515548706055
C 43.780025482177734 75.00752258300781 42.51054763793945
C 43.62236404418945 75.47268676757812 43.94795608520508
H 42.59429931640625 75.70333099365234 44.23494338989258
H 43.790069580078125 74.63240051269531 44.62491226196289
H 44.28104019165039 76.31304931640625 44.17685317993164
C 43.46204376220703 76.07418060302734 41.53287124633789
H 43.61365509033203 77.06509399414062 41.96596145629883
H 42.37594223022461 76.12543487548828 41.4317512512207
C 44.071598052978516 75.95896911621094 40.14638900756836
H 45.163597106933594 75.95809173583984 40.14376449584961
H 43.78178787231445 76.84862518310547 39.583377838134766
C 43.45805740356445 74.61450958251953 39.652339935302734
H 42.36956787109375 74.62911224365234 39.56607437133789
H 43.79295349121094 74.46863555908203 38.62324142456055
C 44.1347770690918 73.52957916259766 40.511173248291016
C 43.46656799316406 72.2647476196289 39.99373245239258
H 42.38111877441406 72.32797241210938 40.09500503540039
H 43.76487350463867 72.10787963867188 38.95504379272461
H 43.67766571044922 71.32249450683594 40.50368881225586
C 45.55518341064453 73.37921905517578 39.97214126586914
H 45.67076873779297 73.53789520263672 38.8979377746582
H 46.21902084350586 74.14849853515625 40.372127532958984
H 45.993995666503906 72.40702819824219 40.20612716674805
