207
Triad, Carotenoid-Porphyrin-C60
C 31.390825271606445 54.56656265258789 56.57114791870117
C 37.38013458251953 56.481815338134766 57.7774543762207
C 36.35810852050781 56.53194046020508 55.81713104248047
C 34.0254020690918 56.509029388427734 55.02903747558594
C 36.967655181884766 56.447696685791016 60.13507843017578
C 37.54376220703125 55.85593032836914 59.040592193603516
C 36.14573287963867 58.28604507446289 58.861244201660156
C 34.71943664550781 58.32651138305664 56.402870178222656
C 30.993627548217773 56.58198928833008 57.58038330078125
C 36.30292892456055 57.677120208740234 60.10086441040039
C 31.89910316467285 55.57204055786133 55.764888763427734
C 34.281246185302734 54.56484603881836 61.672767639160156
C 36.43906784057617 55.42165756225586 60.915122985839844
C 32.027076721191406 54.57634353637695 60.925167083740234
C 31.308340072631836 56.74503707885742 59.98798751831055
C 31.16185188293457 55.34101486206055 60.114532470703125
C 34.54869079589844 56.82595443725586 61.52950668334961
C 34.88503646850586 58.89980697631836 58.73215103149414
C 34.17153549194336 58.91360855102539 57.54705047607422
C 32.18947219848633 58.35537338256836 58.77289962768555
C 35.62102127075195 52.430789947509766 56.62266540527344
C 36.21173858642578 52.66697311401367 58.06401062011719
C 36.057743072509766 53.72347640991211 55.996883392333984
C 36.998348236083984 54.38614273071289 56.79795455932617
C 31.628267288208008 53.39212417602539 59.02811050415039
C 35.436283111572266 52.55399703979492 59.16773986816406
C 33.06977462768555 55.45261764526367 55.14598846435547
C 34.536258697509766 53.39177322387695 60.99417495727539
C 36.7307243347168 54.1809196472168 60.32637405395508
C 32.28224563598633 53.38577651977539 60.255619049072266
C 35.12526321411133 54.46470260620117 55.233314514160156
C 33.16914749145508 56.55770492553711 61.561614990234375
C 32.34773254394531 57.329769134521484 60.709407806396484
C 32.807411193847656 58.70858383178711 57.57773971557617
C 34.221473693847656 58.63186264038086 59.97986602783203
C 34.07700729370117 52.08182907104492 56.55324172973633
C 33.41550064086914 52.1588020324707 57.90091323852539
C 33.19936752319336 53.10502243041992 55.823307037353516
C 32.18423843383789 52.75092697143555 57.83428955078125
C 31.20197105407715 57.34101486206055 58.757720947265625
C 37.101348876953125 53.77383041381836 58.0124626159668
C 33.744483947753906 54.22976303100586 55.24427795410156
C 32.03502655029297 53.33090591430664 56.577354431152344
C 35.289512634277344 55.84525680541992 55.14249038696289
C 30.92547035217285 54.57341384887695 58.93345260620117
C 34.09532165527344 52.17893600463867 59.135231018066406
C 35.734031677246094 53.192386627197266 60.350460052490234
C 37.10483169555664 55.779605865478516 56.67472839355469
C 37.43696594238281 54.46064376831055 59.127532958984375
C 32.869544982910156 58.36940383911133 59.950660705566406
C 33.532779693603516 52.7469367980957 60.28913497924805
C 30.861730575561523 55.18791580200195 57.71656036376953
C 36.68252944946289 57.723079681396484 57.666099548339844
C 35.98807907104492 57.70742416381836 56.453731536865234
C 33.71926498413086 57.67147445678711 55.692256927490234
C 31.638200759887695 56.83315658569336 56.41078186035156
C 35.26432418823242 55.59505081176758 61.644405364990234
C 33.01828384399414 55.179569244384766 61.67475509643555
C 32.577083587646484 57.83231735229492 56.471763610839844
C 35.08995056152344 57.83328628540039 60.749935150146484
C 36.184200286865234 51.313236236572266 55.81074905395508
N 35.35693359375 50.39118576049805 55.45227813720703
C 33.994693756103516 50.63737106323242 55.99509048461914
H 33.671539306640625 49.91840744018555 56.75226974487305
H 33.3549919128418 50.446407318115234 55.12966537475586
C 40.368621826171875 50.340702056884766 55.19503402709961
C 39.58726501464844 49.6904182434082 56.173797607421875
H 40.02859878540039 48.83266067504883 56.67485046386719
C 38.222232818603516 50.00669479370117 56.40189743041992
H 37.7061653137207 49.46089553833008 57.1876106262207
C 37.649471282958984 51.087459564208984 55.674476623535156
C 39.71149444580078 51.392269134521484 54.49661636352539
H 40.27157211303711 51.894901275634766 53.712242126464844
C 38.378089904785156 51.796939849853516 54.737510681152344
H 37.78984069824219 52.462100982666016 54.11054611206055
C 41.80213928222656 50.0366096496582 54.897972106933594
C 42.3830680847168 48.8297004699707 55.51826095581055
C 42.7108268737793 48.57546615600586 56.82028579711914
H 42.591285705566406 49.28108596801758 57.635780334472656
C 43.35224914550781 47.31364822387695 56.90611267089844
H 43.639034271240234 46.7161979675293 57.765201568603516
C 43.590023040771484 46.8800163269043 55.63965606689453
N 42.98954391479492 47.811397552490234 54.86237335205078
H 43.1380615234375 47.74173355102539 53.86477279663086
C 44.177345275878906 45.59868240356445 55.175960540771484
H 44.37726974487305 44.79958724975586 55.888282775878906
C 44.608436584472656 45.26778030395508 53.885860443115234
C 44.52949523925781 44.04770278930664 53.276004791259766
H 44.08409118652344 43.15261459350586 53.69749069213867
C 45.061370849609375 44.15690231323242 52.00889205932617
H 45.22330856323242 43.36674118041992 51.28318405151367
C 45.556949615478516 45.514835357666016 51.957767486572266
N 45.20635223388672 46.19295883178711 53.05753707885742
C 46.195655822753906 46.14689254760742 50.733829498291016
C 46.10965347290039 47.542911529541016 50.55923080444336
C 46.99143600463867 48.36484146118164 49.864070892333984
H 47.864749908447266 48.03123092651367 49.313385009765625
C 46.6851921081543 49.658390045166016 50.06707000732422
H 47.289730072021484 50.462947845458984 49.66154861450195
C 45.545841217041016 49.80606460571289 50.88243865966797
N 45.33066177368164 48.477848052978516 51.1947021484375
H 44.59278869628906 48.19906234741211 51.827110290527344
C 45.0036735534668 50.968257904052734 51.38528060913086
H 45.39882278442383 51.8844108581543 50.94887924194336
C 44.04418182373047 51.23817825317383 52.42539596557617
C 43.60820770263672 52.49013900756836 52.991058349609375
H 44.083213806152344 53.44712448120117 52.801937103271484
C 42.67875289916992 52.182132720947266 54.015907287597656
H 42.257904052734375 52.97157669067383 54.629817962646484
C 42.46672058105469 50.77890396118164 53.913936614990234
N 43.35136032104492 50.276371002197266 53.08163833618164
C 48.373504638671875 43.67546463012695 47.90475845336914
C 47.830902099609375 44.89204025268555 47.519954681396484
H 48.044761657714844 45.24338912963867 46.51377868652344
C 47.181556701660156 45.7457389831543 48.463077545166016
H 46.68681716918945 46.640926361083984 48.095054626464844
C 46.96829605102539 45.30081558227539 49.756107330322266
C 48.08229064941406 43.20895767211914 49.20048904418945
H 48.44328308105469 42.23299026489258 49.51473617553711
C 47.402915954589844 44.004642486572266 50.14008331298828
H 47.2125129699707 43.634159088134766 51.14410400390625
N 49.01629638671875 42.780269622802734 47.016212463378906
H 48.64622116088867 41.84530258178711 46.932830810546875
C 50.1323356628418 43.10188674926758 46.2652587890625
O 50.59319305419922 44.1685905456543 46.39726257324219
C 50.54674530029297 41.97401809692383 45.29549026489258
C 51.626033782958984 42.11701583862305 44.48212432861328
H 52.1050910949707 43.08945846557617 44.56220245361328
C 51.997798919677734 41.16054916381836 43.559226989746094
C 51.27112579345703 40.02767562866211 43.372432708740234
H 51.467430114746094 39.3079948425293 42.5817985534668
C 50.10498046875 39.85293960571289 44.178165435791016
H 49.4805793762207 38.963253021240234 44.19063186645508
C 49.80759811401367 40.826114654541016 45.103736877441406
H 48.91276550292969 40.72597122192383 45.712677001953125
C 53.216060638427734 41.329708099365234 42.78922653198242
H 53.742549896240234 42.21731948852539 43.13688659667969
C 53.683292388916016 40.606937408447266 41.780792236328125
H 53.18338394165039 39.671146392822266 41.53520965576172
C 54.96366500854492 40.6068229675293 41.18169021606445
C 55.49126052856445 39.37358474731445 40.515132904052734
H 54.79226303100586 38.55105209350586 40.680362701416016
H 56.3892936706543 39.0955924987793 41.070762634277344
H 55.701778411865234 39.58625411987305 39.464935302734375
C 55.739315032958984 41.68760299682617 41.20281982421875
H 55.3732795715332 42.61422348022461 41.64250183105469
C 57.0351676940918 41.98659133911133 40.49787521362305
H 57.25766372680664 41.28142166137695 39.69839859008789
C 57.88322830200195 42.97287368774414 40.83673095703125
H 57.59126663208008 43.598575592041016 41.67885971069336
C 59.18111038208008 43.28348922729492 40.21360778808594
C 59.40951156616211 42.751155853271484 38.80863952636719
H 60.146907806396484 41.95528793334961 38.68488311767578
H 58.45317459106445 42.424808502197266 38.39467239379883
H 59.61570358276367 43.60829544067383 38.16422653198242
C 60.08675765991211 44.10000228881836 40.769832611083984
H 60.058231353759766 44.389408111572266 41.81928253173828
C 61.2820930480957 44.51774978637695 40.076927185058594
H 61.51004409790039 44.230892181396484 39.051414489746094
C 62.277103424072266 45.1861457824707 40.63809585571289
H 62.180850982666016 45.49039077758789 41.67929458618164
C 63.56211471557617 45.52926254272461 39.90026092529297
H 63.6166877746582 45.35823440551758 38.8261604309082
C 64.64271545410156 46.08918380737305 40.49365234375
C 64.74381256103516 46.40188217163086 41.97509002685547
H 64.10926818847656 45.67618179321289 42.48809051513672
H 65.74528503417969 46.31410598754883 42.401493072509766
H 64.2742919921875 47.299930572509766 42.38194274902344
C 65.83536529541016 46.40813064575195 39.80852127075195
H 66.52136993408203 47.07027053833008 40.3347053527832
C 66.2039566040039 45.92525100708008 38.62022399902344
H 65.54813385009766 45.15578842163086 38.21556854248047
C 67.41993713378906 46.22219467163086 37.85188674926758
H 68.25921630859375 46.679569244384766 38.37375259399414
C 67.7678451538086 45.96046829223633 36.52742385864258
C 66.71471405029297 45.42301559448242 35.61471939086914
H 66.81231689453125 44.342891693115234 35.48710632324219
H 65.69459533691406 45.577266693115234 35.97251892089844
H 66.59131622314453 45.89777755737305 34.63909912109375
C 69.05042266845703 46.11941146850586 35.968360900878906
H 69.76329803466797 46.386844635009766 36.746952056884766
C 69.48641204833984 46.00935745239258 34.731441497802734
H 68.76431274414062 45.602176666259766 34.02525329589844
C 70.86193084716797 46.1883659362793 34.188472747802734
C 71.1717758178711 45.70036697387695 32.94224548339844
C 70.16500091552734 44.979190826416016 31.995223999023438
H 70.69456481933594 44.564884185791016 31.13477897644043
H 69.54901123046875 44.182437896728516 32.41737747192383
H 69.4742202758789 45.64308547973633 31.471269607543945
C 72.52928161621094 45.915836334228516 32.2431640625
H 72.35896301269531 46.7564582824707 31.567283630371094
H 72.8595962524414 45.108943939208984 31.585683822631836
C 73.64622497558594 46.35554122924805 33.2005500793457
H 74.5763931274414 46.518680572509766 32.652244567871094
H 74.03629302978516 45.589176177978516 33.87360763549805
C 73.01696014404297 47.462711334228516 34.05659103393555
H 73.78805541992188 47.98967361450195 34.622440338134766
H 72.58731079101562 48.26668930053711 33.455352783203125
C 71.9341049194336 47.0202751159668 34.96916961669922
C 72.56000518798828 46.25393295288086 36.10253143310547
H 73.00529479980469 45.35990524291992 35.66105270385742
H 73.36628723144531 46.78336715698242 36.61445999145508
H 71.89188385009766 45.877803802490234 36.88008499145508
C 71.40089416503906 48.362606048583984 35.609188079833984
H 70.83758544921875 48.30765151977539 36.54306411743164
H 72.23094177246094 48.998050689697266 35.92493438720703
H 70.8949966430664 48.93474197387695 34.82867431640625
