207
Triad, Carotenoid-Porphyrin-C60
C 61.15320587158203 38.77393341064453 47.0772819519043
C 58.42633819580078 44.520408630371094 46.37881851196289
C 60.51860046386719 43.798744201660156 45.77242660522461
C 61.704139709472656 41.77766799926758 45.28438949584961
C 56.298683166503906 43.60548400878906 46.914432525634766
C 57.385498046875 44.329689025878906 47.283809661865234
C 57.27192687988281 43.29512023925781 44.73749923706055
C 59.79058837890625 42.38066101074219 43.967411041259766
C 59.79594421386719 38.251548767089844 45.36042404174805
C 56.256980895996094 43.058349609375 45.5924186706543
C 61.45838928222656 39.54496383666992 46.0124626159668
C 55.81903076171875 40.5293083190918 48.73466110229492
C 55.860992431640625 42.79014205932617 47.98737716674805
C 56.989479064941406 38.453651428222656 48.2652473449707
C 57.50110626220703 38.232330322265625 45.90647506713867
C 57.783172607421875 37.94259262084961 47.24808120727539
C 55.46131134033203 41.01063919067383 46.56875991821289
C 57.38001251220703 42.10572052001953 43.962947845458984
C 58.703857421875 41.71062088012695 43.49757766723633
C 58.04054260253906 39.38444519042969 43.98810958862305
C 60.923492431640625 42.64757537841797 49.844669342041016
C 59.44071960449219 42.95043182373047 49.96017837524414
C 61.19274139404297 43.26270294189453 48.44245529174805
C 60.08735656738281 44.061798095703125 48.070430755615234
C 59.113121032714844 38.40324783325195 48.865901947021484
C 58.51637268066406 42.00116729736328 50.31977462768555
C 61.95850372314453 40.77302932739258 46.202022552490234
C 56.677032470703125 40.77538299560547 49.7607536315918
C 56.76286315917969 43.09278869628906 49.024723052978516
C 57.833984375 38.75232696533203 49.27482986450195
C 61.830299377441406 42.62042236328125 47.37150955200195
C 55.73692321777344 39.6689338684082 46.6419792175293
C 56.460060119628906 39.14752197265625 45.5589714050293
C 58.99744415283203 40.329689025878906 43.541141510009766
C 56.44249725341797 41.21173858642578 44.32363510131836
C 61.33441925048828 41.163578033447266 49.9747200012207
C 60.19171905517578 40.1921272277832 50.228145599365234
C 61.815940856933594 40.550193786621094 48.67210006713867
C 60.2640380859375 39.08711624145508 49.307254791259766
C 58.47620391845703 38.39344024658203 44.9359245300293
C 59.01897430419922 43.81787872314453 48.96934127807617
C 62.147613525390625 41.316802978515625 47.53384780883789
C 61.27430725097656 39.331878662109375 48.3765983581543
C 61.542633056640625 42.96341323852539 46.01572036743164
C 59.07598876953125 37.7927360534668 47.668216705322266
C 58.848548889160156 40.66130447387695 50.46683883666992
C 57.1983642578125 42.1035041809082 49.87753677368164
C 59.7611083984375 44.37262725830078 46.79482650756836
C 57.69091796875 43.95208740234375 48.59709548950195
C 56.79033660888672 39.833683013916016 44.4229621887207
C 57.7030029296875 39.92101287841797 50.0826301574707
C 60.11968994140625 37.9669075012207 46.694889068603516
C 58.36566925048828 43.976036071777344 45.09089279174805
C 59.607765197753906 43.50782012939453 44.75435256958008
C 60.84788513183594 41.491886138916016 44.20485305786133
C 60.677589416503906 39.2255973815918 44.876705169677734
C 55.439292907714844 41.5350456237793 47.86381912231445
C 56.00865936279297 39.36630630493164 47.95689010620117
C 60.31305694580078 40.21174240112305 43.976009368896484
C 55.79997253417969 41.74968338012695 45.43306350708008
C 61.68003845214844 43.30171203613281 51.044559478759766
N 62.47338104248047 42.517208099365234 51.705013275146484
C 62.377037048339844 41.1357421875 51.11301040649414
H 62.207115173339844 40.35905075073242 51.8630256652832
H 63.35987854003906 41.01194763183594 50.65110397338867
C 60.83338165283203 47.411766052246094 52.22105026245117
C 61.62672424316406 47.08714294433594 51.04475021362305
H 61.97662353515625 47.920196533203125 50.44046401977539
C 61.893829345703125 45.75348663330078 50.68610763549805
H 62.452880859375 45.50690460205078 49.78709030151367
C 61.516754150390625 44.703704833984375 51.48592758178711
C 60.33540344238281 46.29608917236328 52.92854690551758
H 59.57482147216797 46.45734405517578 53.68819808959961
C 60.66691589355469 44.97126007080078 52.53525924682617
H 60.18816375732422 44.09175109863281 52.95816421508789
C 60.58335876464844 48.851776123046875 52.72587203979492
C 61.10307312011719 49.98578643798828 51.92494583129883
C 62.322845458984375 50.28007507324219 51.380916595458984
H 63.16277313232422 49.59454345703125 51.338565826416016
C 62.275001525878906 51.551910400390625 50.734859466552734
H 62.97838592529297 51.98173522949219 50.029361724853516
C 61.10179138183594 52.13880157470703 51.1480598449707
N 60.38871765136719 51.1748046875 51.8043327331543
H 59.47662353515625 51.25206756591797 52.23355484008789
C 60.58241271972656 53.48284912109375 51.02231216430664
H 61.11609649658203 54.116844177246094 50.315799713134766
C 59.476341247558594 54.103111267089844 51.525447845458984
C 59.2779541015625 55.503990173339844 51.5425910949707
H 59.918312072753906 56.25714111328125 51.09543991088867
C 58.07752227783203 55.66802978515625 52.15681076049805
H 57.558387756347656 56.58589172363281 52.41226577758789
C 57.54810333251953 54.382423400878906 52.45418167114258
N 58.404815673828125 53.43589782714844 52.097171783447266
C 56.329864501953125 54.00554656982422 53.149784088134766
C 56.26979064941406 53.21379089355469 54.27079391479492
C 55.498321533203125 53.27894592285156 55.470279693603516
H 54.76533508300781 54.07007598876953 55.588871002197266
C 55.969970703125 52.40721893310547 56.45077896118164
H 55.55609893798828 52.32275390625 57.45017623901367
C 57.0491943359375 51.72068786621094 55.87492752075195
N 57.17597961425781 52.3336181640625 54.66898727416992
H 57.90282440185547 52.041160583496094 54.03001022338867
C 57.79632568359375 50.683372497558594 56.30449295043945
H 57.59471130371094 50.523094177246094 57.36259841918945
C 58.73352813720703 49.910987854003906 55.54574203491211
C 59.495140075683594 48.86481475830078 56.03219985961914
H 59.54322814941406 48.56822204589844 57.074764251708984
C 60.31696319580078 48.413299560546875 55.0442008972168
H 61.00321960449219 47.57794189453125 55.1360969543457
C 59.97863006591797 49.15699005126953 53.94144058227539
N 59.04118347167969 50.072113037109375 54.26974868774414
C 52.50001525878906 55.063385009765625 51.38466262817383
C 52.54728698730469 54.22215270996094 52.50325393676758
H 51.67707061767578 53.83837890625 53.02957534790039
C 53.816001892089844 53.869285583496094 53.0297966003418
H 53.76316833496094 53.19618225097656 53.88167953491211
C 55.03535461425781 54.34313201904297 52.50288009643555
C 53.68242645263672 55.55364990234375 50.82084274291992
H 53.572105407714844 56.16674041748047 49.9300422668457
C 54.90803527832031 55.28614044189453 51.420162200927734
H 55.79254913330078 55.69074249267578 50.934871673583984
N 51.28346252441406 55.51631164550781 50.85026931762695
H 51.351585388183594 56.29773712158203 50.2155876159668
C 50.05084228515625 54.936279296875 50.87440872192383
O 49.68913269042969 53.98039245605469 51.574405670166016
C 49.042564392089844 55.4000244140625 49.828121185302734
C 47.67438507080078 55.27778625488281 50.08987808227539
H 47.34858703613281 54.711326599121094 50.95853042602539
C 46.722267150878906 55.813499450683594 49.285579681396484
C 47.11932373046875 56.59733581542969 48.19327926635742
H 46.42127990722656 56.86969757080078 47.40579605102539
C 48.49198913574219 56.828895568847656 47.92148208618164
H 48.81217956542969 57.38160705566406 47.04195785522461
C 49.42670440673828 56.18463134765625 48.69789505004883
H 50.491493225097656 56.281471252441406 48.501888275146484
C 45.30328369140625 55.57366180419922 49.6065559387207
H 45.251190185546875 54.84203338623047 50.411495208740234
C 44.13355255126953 55.898193359375 49.00502395629883
H 44.11566925048828 56.50736999511719 48.10251998901367
C 42.786376953125 55.50640869140625 49.41976547241211
C 42.58465576171875 55.29608154296875 50.89096450805664
H 42.83451843261719 54.25597381591797 51.11051559448242
H 41.62561798095703 55.51121520996094 51.36680221557617
H 43.270225524902344 55.89447021484375 51.494625091552734
C 41.78224182128906 55.29383087158203 48.54866409301758
H 41.92704772949219 55.35883331298828 47.47129440307617
C 40.417022705078125 54.882568359375 48.90450668334961
H 40.20265197753906 54.71067810058594 49.95827102661133
C 39.54682159423828 54.66319274902344 47.9180793762207
H 39.83659362792969 54.819419860839844 46.88003158569336
C 38.148193359375 54.377586364746094 48.13200759887695
C 37.54365539550781 54.76654815673828 49.50272750854492
H 37.32731628417969 53.85307312011719 50.060604095458984
H 38.197959899902344 55.373138427734375 50.132328033447266
H 36.53721618652344 55.16899871826172 49.3701057434082
C 37.489280700683594 53.74329376220703 47.2089958190918
H 38.04053497314453 53.5501708984375 46.28989791870117
C 36.115875244140625 53.370338439941406 47.18058395385742
H 35.681854248046875 53.22620391845703 48.16890335083008
C 35.40864562988281 53.112884521484375 46.06313705444336
H 35.921112060546875 53.32842254638672 45.12673568725586
C 33.98207092285156 52.672950744628906 46.060176849365234
H 33.553443908691406 52.619667053222656 47.05986404418945
C 33.27288055419922 52.10298156738281 45.07664108276367
C 33.7642822265625 52.01567840576172 43.70402145385742
H 34.84534454345703 51.861541748046875 43.70705795288086
H 33.215789794921875 51.18206787109375 43.260494232177734
H 33.437294006347656 52.88227081298828 43.125606536865234
C 31.826242446899414 51.84429168701172 45.403079986572266
H 31.6574649810791 51.792510986328125 46.4776725769043
C 30.875947952270508 51.57984161376953 44.52634811401367
H 31.123003005981445 51.59485626220703 43.46585464477539
C 29.562166213989258 51.09508514404297 44.9705696105957
H 29.53037452697754 50.94679260253906 46.048954010009766
C 28.405969619750977 50.80852508544922 44.29018020629883
C 28.273576736450195 51.008514404296875 42.809146881103516
H 28.318452835083008 52.08392333984375 42.62491989135742
H 29.05479621887207 50.53192138671875 42.213314056396484
H 27.37920570373535 50.641563415527344 42.30128860473633
C 27.21849250793457 50.486480712890625 44.99960708618164
H 27.097230911254883 50.916770935058594 45.992618560791016
C 26.13640785217285 49.793060302734375 44.57889175415039
H 26.0102481842041 49.38401794433594 43.57754135131836
C 25.012170791625977 49.52001953125 45.46645736694336
C 25.103151321411133 48.99403381347656 46.74533462524414
C 26.36766242980957 48.51909637451172 47.35538101196289
H 27.172555923461914 48.3348388671875 46.64078140258789
H 26.68560218811035 49.34741973876953 47.99197769165039
H 26.290117263793945 47.69464874267578 48.06722640991211
C 23.97551155090332 48.8135986328125 47.71293258666992
H 24.255090713500977 48.956947326660156 48.75875473022461
H 23.635637283325195 47.783241271972656 47.58919143676758
C 22.72252082824707 49.68620300292969 47.340641021728516
H 22.913820266723633 50.74449157714844 47.53013229370117
H 21.896509170532227 49.36647033691406 47.97935104370117
C 22.372087478637695 49.53559112548828 45.864688873291016
H 22.225793838500977 48.453773498535156 45.83756637573242
H 21.541170120239258 50.17744445800781 45.564579010009766
C 23.596033096313477 49.89930725097656 44.93599319458008
C 23.28318977355957 49.31065368652344 43.56136703491211
H 22.28294563293457 49.65447235107422 43.28976058959961
H 23.901453018188477 49.703857421875 42.75167465209961
H 23.502534866333008 48.24610900878906 43.666744232177734
C 23.54093360900879 51.41931915283203 44.73408126831055
H 22.660547256469727 51.74700164794922 44.177303314208984
H 23.680971145629883 51.895263671875 45.70687484741211
H 24.479082107543945 51.75170135498047 44.2848014831543
