207
Triad, Carotenoid-Porphyrin-C60
C 34.14930725097656 38.150856018066406 42.66925048828125
C 40.09679412841797 36.011924743652344 41.53307342529297
C 39.107948303222656 36.25169372558594 43.43712615966797
C 36.850372314453125 36.474998474121094 44.31284713745117
C 39.52576446533203 35.83011245727539 39.17327880859375
C 40.19709014892578 36.48177719116211 40.181793212890625
C 38.832481384277344 34.087276458740234 40.71581268310547
C 37.48292541503906 34.447086334228516 43.206504821777344
C 33.66065979003906 36.06541442871094 41.929752349853516
C 38.851318359375 34.60151290893555 39.46241760253906
C 34.75843811035156 37.2589225769043 43.44071960449219
C 36.905914306640625 37.43821716308594 37.44542694091797
C 39.066505432128906 36.68888854980469 38.228538513183594
C 34.67805480957031 37.58734130859375 38.311275482177734
C 33.996131896972656 35.62709045410156 39.50819778442383
C 33.833274841308594 37.016990661621094 39.23265075683594
C 37.160926818847656 35.261592864990234 37.895530700683594
C 37.58904266357422 33.53916931152344 40.95610046386719
C 36.90727233886719 33.722782135009766 42.15604019165039
C 34.82025909423828 34.13901901245117 40.96377944946289
C 38.43736267089844 40.24989700317383 42.09093475341797
C 38.963539123535156 39.82963180541992 40.71073532104492
C 38.828521728515625 39.07052993774414 42.98228073120117
C 39.713096618652344 38.2645263671875 42.21778106689453
C 34.41154479980469 39.017208099365234 40.011985778808594
C 38.18400573730469 39.84496307373047 39.563106536865234
C 35.9375 37.47837448120117 44.14329147338867
C 37.177391052246094 38.70750045776367 37.99808883666992
C 39.337913513183594 38.00434875488281 38.70667266845703
C 34.951866149902344 38.86312484741211 38.761878967285156
C 37.960418701171875 38.377750396728516 43.8091926574707
C 35.80146789550781 35.53268814086914 37.90068054199219
C 34.99366760253906 34.94340896606445 38.84415054321289
C 35.52116394042969 33.99525451660156 42.15596389770508
C 36.89136505126953 33.69394302368164 39.687313079833984
C 36.93157196044922 40.61838912963867 42.195106506347656
C 36.202674865722656 40.42505645751953 40.84381866455078
C 36.040382385253906 39.690185546875 43.06599807739258
C 35.01226806640625 39.752628326416016 41.09963607788086
C 33.901329040527344 35.17244338989258 40.82197952270508
C 39.80481719970703 38.7014045715332 40.89148712158203
C 36.58271789550781 38.67288589477539 43.87056350708008
C 34.81646728515625 39.38420486450195 42.43961715698242
C 38.128440856933594 37.06636428833008 44.09450912475586
C 33.60826110839844 37.87461471557617 40.273826599121094
C 36.80931854248047 40.14728546142578 39.65162658691406
C 38.34812927246094 38.94411087036133 38.5404052734375
C 39.961456298828125 36.8902473449707 42.582298278808594
C 40.009552001953125 37.804351806640625 39.88738250732422
C 35.49866485595703 34.00047302246094 39.72130584716797
C 36.19606018066406 39.43768310546875 38.588340759277344
C 33.54779052734375 37.44184494018555 41.62342834472656
C 39.45563507080078 34.75522994995117 41.822792053222656
C 38.75914764404297 34.94976043701172 43.014671325683594
C 36.51343536376953 35.17390060424805 43.90114974975586
C 34.39954376220703 35.955055236816406 43.06004333496094
C 37.84075927734375 36.456966400146484 37.649818420410156
C 35.6201171875 36.88084411621094 37.611778259277344
C 35.30199432373047 34.89167022705078 43.25476837158203
C 37.70214080810547 34.359642028808594 38.78703308105469
C 39.049278259277344 41.50048065185547 42.60662078857422
N 38.24053192138672 42.410560607910156 42.9120979309082
C 36.80658721923828 42.07903289794922 42.61423110961914
H 36.495574951171875 42.766258239746094 41.8232536315918
H 36.290367126464844 42.35406494140625 43.53755569458008
C 43.18694305419922 42.32343673706055 43.79692459106445
C 42.61053466796875 42.93716812133789 42.68601608276367
H 43.09491729736328 43.73260498046875 42.125457763671875
C 41.26085662841797 42.5944709777832 42.33647537231445
H 40.78919982910156 43.025184631347656 41.45693588256836
C 40.52336120605469 41.668479919433594 43.015628814697266
C 42.35533905029297 41.471397399902344 44.568485260009766
H 42.84930419921875 41.11171340942383 45.46748733520508
C 41.050804138183594 41.153079986572266 44.25303268432617
H 40.41474914550781 40.55910873413086 44.90433883666992
C 44.618408203125 42.503170013427734 44.20073318481445
C 45.41468811035156 43.57878494262695 43.528404235839844
C 45.68711853027344 43.80693817138672 42.19190216064453
H 45.38719940185547 43.111793518066406 41.41469955444336
C 46.342376708984375 45.03961181640625 42.12108612060547
H 46.7039794921875 45.507713317871094 41.21149826049805
C 46.56951904296875 45.5243034362793 43.36937713623047
N 45.811683654785156 44.722354888916016 44.18935012817383
H 45.71708679199219 44.95978927612305 45.16751480102539
C 47.231727600097656 46.71827697753906 43.898494720458984
H 47.45948028564453 47.44953155517578 43.12433624267578
C 47.81138610839844 46.963539123535156 45.08303451538086
C 48.82195281982422 47.97785949707031 45.23274612426758
H 49.16754150390625 48.65450668334961 44.458187103271484
C 49.25371551513672 47.796974182128906 46.52987289428711
H 50.087745666503906 48.34078598022461 46.96101760864258
C 48.467567443847656 46.79921340942383 47.1302375793457
N 47.636878967285156 46.23552322387695 46.245243072509766
C 48.61125946044922 46.25517654418945 48.4622917175293
C 48.67042541503906 44.892765045166016 48.6530876159668
C 49.492271423339844 44.083377838134766 49.480167388916016
H 50.309593200683594 44.45953369140625 50.08656692504883
C 49.09049987792969 42.75777053833008 49.43901443481445
H 49.59026336669922 41.93790817260742 49.944271087646484
C 48.08421325683594 42.62571716308594 48.44150924682617
N 47.88751220703125 43.92674255371094 48.05070877075195
H 47.102745056152344 44.15945816040039 47.45732498168945
C 47.40727233886719 41.57790756225586 48.05476760864258
H 47.73490905761719 40.66364288330078 48.54741287231445
C 46.48149871826172 41.39259719848633 46.94282150268555
C 45.93427276611328 40.18662643432617 46.41270065307617
H 46.11315155029297 39.192115783691406 46.80788803100586
C 45.180023193359375 40.513790130615234 45.3344841003418
H 44.653282165527344 39.84236526489258 44.6644401550293
C 45.15876770019531 41.89313507080078 45.29970932006836
N 45.997406005859375 42.43617248535156 46.14767074584961
C 48.08598327636719 48.812442779541016 51.85170364379883
C 48.003753662109375 47.46156692504883 52.032840728759766
H 47.77545928955078 47.108551025390625 53.03525161743164
C 48.16510009765625 46.589508056640625 50.95651626586914
H 48.27045440673828 45.51182556152344 51.051761627197266
C 48.4451904296875 47.140724182128906 49.67313003540039
C 48.14203643798828 49.34807586669922 50.568180084228516
H 47.9827880859375 50.42131423950195 50.50205612182617
C 48.29948425292969 48.52484893798828 49.48836898803711
H 48.11865997314453 48.87525939941406 48.475406646728516
N 47.90199279785156 49.573387145996094 52.99826431274414
H 47.104522705078125 49.3650016784668 53.58024215698242
C 48.64105987548828 50.70393753051758 53.27443313598633
O 49.55381774902344 51.08759689331055 52.54317855834961
C 48.17828369140625 51.57160186767578 54.44424819946289
C 49.12842559814453 52.54869079589844 54.85781478881836
H 50.040611267089844 52.72380065917969 54.29317855834961
C 48.85535430908203 53.389530181884766 55.91794967651367
C 47.628395080566406 53.17475891113281 56.635066986083984
H 47.43035125732422 53.898460388183594 57.42158126831055
C 46.71723175048828 52.14884948730469 56.325679779052734
H 45.72648620605469 51.994232177734375 56.745296478271484
C 46.960426330566406 51.45249557495117 55.14139175415039
H 46.309043884277344 50.63109588623047 54.85403060913086
C 49.92705535888672 54.34474563598633 56.324398040771484
H 50.796630859375 54.20063781738281 55.684871673583984
C 49.89045715332031 55.30099105834961 57.2571907043457
H 49.039588928222656 55.4035530090332 57.929080963134766
C 50.940956115722656 56.1903076171875 57.74977493286133
C 50.63328552246094 56.90443801879883 58.98580551147461
H 50.32012176513672 57.907291412353516 58.68801498413086
H 51.51918029785156 56.89453887939453 59.624210357666016
H 49.75843048095703 56.5068473815918 59.50447463989258
C 52.10041809082031 56.33940505981445 57.114742279052734
H 52.390472412109375 55.720054626464844 56.267276763916016
C 53.176979064941406 57.2608757019043 57.523990631103516
H 52.930755615234375 58.011356353759766 58.27370834350586
C 54.306793212890625 57.37184143066406 56.84018325805664
H 54.421775817871094 56.63467788696289 56.04690170288086
C 55.4053955078125 58.307865142822266 57.02194595336914
C 55.268699645996094 59.11093521118164 58.271915435791016
H 56.265281677246094 59.277103424072266 58.68624496459961
H 54.808677673339844 60.08762741088867 58.10783004760742
H 54.75218200683594 58.51802444458008 59.02962875366211
C 56.43988037109375 58.35141372680664 56.19851303100586
H 56.407371520996094 57.800594329833984 55.259647369384766
C 57.62158966064453 59.25222396850586 56.354793548583984
H 57.6148681640625 60.10722732543945 57.02921676635742
C 58.74315643310547 59.14860916137695 55.62168502807617
H 58.79753112792969 58.37149429321289 54.8607292175293
C 59.89874267578125 60.00002670288086 55.77021408081055
H 59.743873596191406 60.96455001831055 56.25149154663086
C 61.11383056640625 59.7383918762207 55.340946197509766
C 61.47764587402344 58.583805084228516 54.594661712646484
H 62.332786560058594 58.11318588256836 55.08426284790039
H 60.72278594970703 57.806270599365234 54.46017837524414
H 61.641685485839844 58.984622955322266 53.59221267700195
C 62.117950439453125 60.7298469543457 55.63527297973633
H 61.90442657470703 61.60110092163086 56.25271987915039
C 63.36468505859375 60.7996711730957 55.05222702026367
H 63.68760681152344 60.16084671020508 54.23153305053711
C 64.1935806274414 61.980899810791016 55.31166458129883
H 63.939353942871094 62.61014938354492 56.163333892822266
C 65.34275817871094 62.2805290222168 54.6081657409668
C 65.75791931152344 61.419979095458984 53.439022064208984
H 66.61559295654297 61.90363693237305 52.96686935424805
H 66.03488159179688 60.4692497253418 53.89932632446289
H 64.94098663330078 61.34805679321289 52.71797561645508
C 66.22334289550781 63.4224967956543 54.893123626708984
H 66.88602447509766 63.611263275146484 54.04982376098633
C 66.13412475585938 64.27621459960938 55.89585494995117
H 65.4381332397461 64.0081787109375 56.68937301635742
C 66.96556854248047 65.46971893310547 56.16922378540039
C 68.27488708496094 65.46672821044922 56.5245475769043
C 68.90325164794922 64.17813110351562 56.88163375854492
H 68.68433380126953 63.99038314819336 57.93485641479492
H 68.3218765258789 63.39120101928711 56.39665603637695
H 69.96443939208984 64.09680938720703 56.63725662231445
C 69.1859130859375 66.6683349609375 56.71824264526367
H 69.84770965576172 66.64254760742188 55.85000991821289
H 69.84622192382812 66.46070861816406 57.56283950805664
C 68.36910247802734 67.99298858642578 56.898868560791016
H 68.95367431640625 68.91304016113281 56.83376693725586
H 67.8619384765625 67.94174194335938 57.86458969116211
C 67.25153350830078 67.962158203125 55.82101821899414
H 66.67977905273438 68.8910140991211 55.76820755004883
H 67.7590560913086 67.80692291259766 54.86667251586914
C 66.30075073242188 66.8207778930664 55.85817337036133
C 65.1617660522461 67.20096588134766 56.7411994934082
H 65.57950592041016 67.39229583740234 57.73183059692383
H 64.5322036743164 68.05809783935547 56.493343353271484
H 64.48057556152344 66.3487548828125 56.787899017333984
C 65.5880126953125 66.8128890991211 54.4924430847168
H 66.3443374633789 66.55835723876953 53.74702835083008
H 64.77989959716797 66.08304595947266 54.57460403442383
H 65.13629913330078 67.788818359375 54.30276107788086
