207
Triad, Carotenoid-Porphyrin-C60
C 41.776031494140625 60.580631256103516 52.479713439941406
C 46.78929138183594 63.37018966674805 49.786380767822266
C 44.975135803222656 62.41902542114258 48.7999153137207
C 42.763832092285156 61.791751861572266 49.30179214477539
C 47.45849609375 64.30020141601562 51.97243881225586
C 47.64649963378906 63.377811431884766 50.93349838256836
C 45.625396728515625 65.21297454833984 50.747291564941406
C 43.39253234863281 64.12841033935547 49.484947204589844
C 41.19580078125 62.732173919677734 52.95905303955078
C 46.46185302734375 65.32482147216797 51.85124969482422
C 41.56786346435547 61.265174865722656 51.29470443725586
C 46.398155212402344 62.969215393066406 55.0281867980957
C 47.64447021484375 63.62834167480469 53.129791259765625
C 44.18714141845703 62.37408447265625 55.58850860595703
C 42.58264923095703 63.85152816772461 54.68416213989258
C 42.869102478027344 62.5851936340332 55.15815734863281
C 45.93419647216797 64.97077941894531 54.147315979003906
C 44.38867950439453 65.66876983642578 51.1506233215332
C 43.2705078125 65.03951263427734 50.525779724121094
C 42.16779327392578 64.89446258544922 52.710933685302734
C 46.05828094482422 58.99726486206055 51.09077072143555
C 47.118865966796875 59.84656524658203 51.81005859375
C 45.74280548095703 59.951499938964844 49.953697204589844
C 46.67506408691406 60.96380615234375 49.80624771118164
C 43.323631286621094 60.36507034301758 54.799476623535156
C 46.96070098876953 60.12643051147461 53.185726165771484
C 42.349884033203125 60.82630157470703 50.22639465332031
C 46.65240478515625 61.62547302246094 54.7973747253418
C 47.93311309814453 62.287437438964844 52.83098220825195
C 44.41291046142578 61.039852142333984 55.35391616821289
C 44.37635803222656 60.19013595581055 49.54662322998047
C 44.82061767578125 64.60712432861328 54.94081115722656
C 43.49690246582031 64.8582763671875 54.467628479003906
C 42.142066955566406 64.6807632446289 51.30596923828125
C 44.39512634277344 65.91548156738281 52.51274871826172
C 44.80131530761719 58.48426055908203 51.95488357543945
C 44.795623779296875 59.00407409667969 53.43900680541992
C 43.464744567871094 59.11354064941406 51.50967025756836
C 43.53352355957031 59.386512756347656 53.78295135498047
C 41.733306884765625 63.90740966796875 53.52722930908203
C 47.492950439453125 60.946449279785156 50.93040466308594
C 43.310516357421875 59.83709716796875 50.34665298461914
C 42.79254150390625 59.5338020324707 52.624473571777344
C 44.057228088378906 61.38985824584961 48.92680358886719
C 42.32508850097656 61.40378952026367 54.67430114746094
C 45.865264892578125 59.70045471191406 53.941383361816406
C 47.421119689941406 61.34572982788086 53.67913818359375
C 46.31623840332031 62.195796966552734 49.24346923828125
C 48.006927490234375 62.138248443603516 51.45097732543945
C 43.27812194824219 65.44414520263672 53.210418701171875
C 45.65911102294922 60.67633819580078 54.94880676269531
C 41.55226135253906 61.479896545410156 53.50244903564453
C 45.82312774658203 64.29937744140625 49.73838806152344
C 44.6986083984375 63.76799774169922 49.10181427001953
C 42.42206573486328 63.14751434326172 49.57493591308594
C 41.17583465576172 62.54405212402344 51.607513427734375
C 46.90679168701172 63.956546783447266 54.259273529052734
C 45.16194152832031 63.38326644897461 55.54000473022461
C 41.623435974121094 63.512245178222656 50.7304573059082
C 45.69261932373047 65.64968872070312 52.9798469543457
C 46.47508239746094 57.668731689453125 50.549034118652344
N 45.89649963378906 56.60737228393555 50.950294494628906
C 44.756263732910156 56.95354080200195 51.744224548339844
H 44.88539123535156 56.404869079589844 52.6806755065918
H 43.76423645019531 56.62083435058594 51.428260803222656
C 49.84014892578125 57.19805145263672 47.843135833740234
C 50.038169860839844 57.69888687133789 49.150238037109375
H 51.05944061279297 57.979942321777344 49.39434051513672
C 48.980796813964844 57.89714813232422 50.05418014526367
H 49.26971435546875 58.27312088012695 51.03231430053711
C 47.68688201904297 57.48183059692383 49.72226333618164
C 48.545372009277344 56.793853759765625 47.56932830810547
H 48.263526916503906 56.32533264160156 46.62984848022461
C 47.49632263183594 56.95257568359375 48.45863723754883
H 46.48388671875 56.63172912597656 48.22713088989258
C 50.95957946777344 57.03764343261719 46.861351013183594
C 52.306236267089844 57.25968933105469 47.38949966430664
C 52.891807556152344 58.34607696533203 47.89553451538086
H 52.38279724121094 59.2997932434082 47.98807144165039
C 54.26097869873047 58.0611686706543 48.18280792236328
H 55.046852111816406 58.766319274902344 48.43258285522461
C 54.49481201171875 56.87873077392578 47.59733963012695
N 53.30815887451172 56.3516731262207 47.27138900756836
H 53.234519958496094 55.45131301879883 46.81746292114258
C 55.756874084472656 56.21826171875 47.49126052856445
H 56.55888366699219 56.57939147949219 48.13335418701172
C 56.08544921875 55.143455505371094 46.73068618774414
C 57.4495849609375 54.812984466552734 46.394954681396484
H 58.355255126953125 55.3149299621582 46.71904373168945
C 57.35845184326172 53.795230865478516 45.531761169433594
H 58.201133728027344 53.277259826660156 45.08586502075195
C 55.951637268066406 53.51091003417969 45.30872344970703
N 55.201332092285156 54.24458312988281 46.07177734375
C 55.31913757324219 52.510711669921875 44.44537353515625
C 54.28178405761719 52.846458435058594 43.57795333862305
C 54.14067840576172 52.55143356323242 42.2007942199707
H 54.80393981933594 51.968711853027344 41.570125579833984
C 53.118675231933594 53.23288345336914 41.65165710449219
H 52.79814910888672 53.34196853637695 40.6208381652832
C 52.423728942871094 54.034400939941406 42.62604522705078
N 53.1754150390625 53.67421340942383 43.73286437988281
H 52.907997131347656 53.98359680175781 44.657466888427734
C 51.35951232910156 54.816070556640625 42.585243225097656
H 50.911964416503906 54.77475357055664 41.593318939208984
C 50.81542205810547 55.73939514160156 43.62345886230469
C 49.77991485595703 56.67339324951172 43.6170539855957
H 49.10441589355469 56.84003448486328 42.78449249267578
C 49.783119201660156 57.367408752441406 44.811073303222656
H 49.21765899658203 58.2442626953125 45.108741760253906
C 50.72857666015625 56.728214263916016 45.57390594482422
N 51.3809814453125 55.75918960571289 44.877323150634766
C 56.751434326171875 48.40422821044922 44.566246032714844
C 55.53746795654297 48.718910217285156 43.896270751953125
H 54.88945007324219 47.93440628051758 43.51392364501953
C 55.09455871582031 50.07768630981445 43.89036178588867
H 54.225616455078125 50.312049865722656 43.28078079223633
C 55.769622802734375 51.11886215209961 44.557411193847656
C 57.35369873046875 49.39173889160156 45.32482147216797
H 58.242652893066406 49.13332748413086 45.89451599121094
C 56.85624694824219 50.73609924316406 45.314613342285156
H 57.435546875 51.38974380493164 45.96171188354492
N 57.11713409423828 47.06712341308594 44.695247650146484
H 56.348716735839844 46.51554870605469 45.04651641845703
C 58.31726837158203 46.48698043823242 44.45222091674805
O 59.243438720703125 47.19392013549805 44.08426284790039
C 58.344879150390625 44.98323440551758 44.70628356933594
C 57.275794982910156 44.286529541015625 45.202125549316406
H 56.39818572998047 44.765384674072266 45.62882614135742
C 57.38578796386719 42.95554733276367 45.44252395629883
C 58.57646942138672 42.28909683227539 45.10516357421875
H 58.68696594238281 41.20886993408203 45.154930114746094
C 59.61101531982422 42.955562591552734 44.43476486206055
H 60.47437286376953 42.44423294067383 44.01676559448242
C 59.535911560058594 44.33991241455078 44.25281524658203
H 60.281822204589844 44.88222885131836 43.67742156982422
C 56.23859405517578 42.26426315307617 46.02399826049805
H 55.33306121826172 42.8468017578125 46.18705368041992
C 56.07139587402344 40.94827651977539 46.3583869934082
H 56.863555908203125 40.24371337890625 46.109405517578125
C 54.932762145996094 40.31709289550781 46.956703186035156
C 53.95677947998047 41.121212005615234 47.80431365966797
H 54.60791015625 41.85906982421875 48.27766036987305
H 53.558998107910156 40.54136657714844 48.63978576660156
H 53.09028625488281 41.58137893676758 47.324832916259766
C 54.92858123779297 38.98007583618164 47.03030014038086
H 55.761924743652344 38.42868423461914 46.59736251831055
C 53.89872741699219 38.152042388916016 47.47663879394531
H 52.90312194824219 38.58479690551758 47.39048767089844
C 54.13720703125 36.957366943359375 48.07929992675781
H 55.16703796386719 36.62898254394531 48.21171951293945
C 53.103179931640625 36.124027252197266 48.630226135253906
C 53.58056640625 35.17494583129883 49.649784088134766
H 52.947059631347656 35.2967414855957 50.53086471557617
H 53.45233154296875 34.148006439208984 49.301326751708984
H 54.58155059814453 35.45768356323242 49.982276916503906
C 51.88611602783203 36.03107452392578 48.14961624145508
H 51.62866973876953 36.74614334106445 47.369667053222656
C 50.740142822265625 35.14809799194336 48.46898651123047
H 50.827476501464844 34.51125717163086 49.34803771972656
C 49.606834411621094 35.23069763183594 47.861026763916016
H 49.428611755371094 36.08920669555664 47.215179443359375
C 48.50531768798828 34.328956604003906 48.16368103027344
H 48.718666076660156 33.43478775024414 48.74751663208008
C 47.25352478027344 34.45085144042969 47.76423263549805
C 46.861549377441406 35.579776763916016 46.811737060546875
H 47.22340393066406 36.573516845703125 47.08377456665039
H 47.09043884277344 35.283103942871094 45.78603744506836
H 45.775054931640625 35.6824836730957 46.84971618652344
C 46.23912048339844 33.44535827636719 48.01047897338867
H 45.26323699951172 33.60516357421875 47.55436325073242
C 46.23090362548828 32.45820999145508 48.884029388427734
H 47.02313232421875 32.357723236083984 49.62443923950195
C 45.18010711669922 31.551198959350586 49.100704193115234
H 44.350616455078125 31.612943649291992 48.3978157043457
C 45.16356658935547 30.464643478393555 49.952056884765625
C 46.307655334472656 30.129100799560547 50.76727294921875
H 46.325531005859375 29.133651733398438 51.21584701538086
H 47.15575408935547 30.175960540771484 50.08097839355469
H 46.44526672363281 30.93848419189453 51.48728942871094
C 44.02735900878906 29.54694938659668 50.120330810546875
H 43.928428649902344 29.11629867553711 51.115657806396484
C 42.91631317138672 29.451915740966797 49.28385543823242
H 42.943267822265625 29.885990142822266 48.285465240478516
C 41.719200134277344 28.559627532958984 49.48310470581055
C 41.000404357910156 28.55194091796875 50.62638473510742
C 41.298622131347656 29.357149124145508 51.82493591308594
H 40.45074462890625 29.50961685180664 52.49598693847656
H 42.14820861816406 28.97530174255371 52.39490509033203
H 41.615386962890625 30.335636138916016 51.45793914794922
C 39.811012268066406 27.68830108642578 50.822452545166016
H 38.952178955078125 28.360660552978516 50.76958084106445
H 39.83317565917969 27.26386260986328 51.82835006713867
C 39.567169189453125 26.572715759277344 49.81568145751953
H 38.59564208984375 26.080522537231445 49.8953742980957
H 40.21880340576172 25.71906280517578 50.0134391784668
C 39.84746551513672 27.143033981323242 48.41273498535156
H 39.65489196777344 26.39270782470703 47.643062591552734
H 39.124656677246094 27.906503677368164 48.1175537109375
C 41.298675537109375 27.653884887695312 48.28280258178711
C 42.30921173095703 26.516469955444336 48.034690856933594
H 42.162986755371094 25.983135223388672 47.09307861328125
H 43.332122802734375 26.896556854248047 48.07533645629883
H 42.35404968261719 25.740327835083008 48.80154037475586
C 41.334991455078125 28.356700897216797 46.91717529296875
H 42.35175323486328 28.727703094482422 46.77214813232422
H 41.04798126220703 27.700389862060547 46.092952728271484
H 40.60356903076172 29.167163848876953 46.89198303222656
