207
Triad, Carotenoid-Porphyrin-C60
C 49.10882568359375 47.0111083984375 33.89552688598633
C 50.34619140625 49.80742263793945 39.46116638183594
C 50.37640380859375 50.68147659301758 37.456966400146484
C 49.459495544433594 50.200321197509766 35.28329849243164
C 49.402008056640625 47.940006256103516 40.61148452758789
C 50.52826690673828 48.64664840698242 40.16207504272461
C 47.952964782714844 49.600772857666016 39.700923919677734
C 47.99552917480469 50.670841217041016 37.10014724731445
C 47.04130554199219 47.23318862915039 34.72766876220703
C 48.10667419433594 48.42314529418945 40.39093780517578
C 48.793296813964844 48.3412971496582 33.88785171508789
C 49.03855895996094 44.67039489746094 39.314029693603516
C 49.737548828125 46.628440856933594 40.50575256347656
C 48.069862365722656 44.19982147216797 37.1348876953125
C 46.37010955810547 45.68745040893555 36.55434036254883
C 47.301170349121094 44.77271270751953 36.13218688964844
C 47.46417236328125 46.15532302856445 39.940486907958984
C 46.83600616455078 49.40456771850586 38.88119125366211
C 46.85712432861328 49.998653411865234 37.535369873046875
C 45.89069366455078 47.932498931884766 36.64118957519531
C 53.071739196777344 47.46889877319336 36.50596237182617
C 52.71754455566406 46.91734313964844 37.91500473022461
C 52.430328369140625 48.8867301940918 36.661197662353516
C 52.10443115234375 49.10554122924805 37.99131393432617
C 49.421844482421875 44.697296142578125 35.44666290283203
C 52.15247344970703 45.68545150756836 38.1512565612793
C 49.811981201171875 49.1733283996582 34.403072357177734
C 50.343666076660156 44.57058334350586 38.84259796142578
C 51.014564514160156 46.44610595703125 40.13920593261719
C 49.390174865722656 44.1453742980957 36.69213104248047
C 51.61699676513672 49.51771926879883 35.709808349609375
C 46.95269775390625 45.44269561767578 38.87876510620117
C 46.193450927734375 46.047794342041016 37.88522720336914
C 46.365318298339844 49.23118209838867 36.43657684326172
C 46.27508544921875 48.12309646606445 39.0518913269043
C 52.531349182128906 46.63383865356445 35.31427764892578
C 51.70283508300781 45.442386627197266 35.81537628173828
C 51.447265625 47.39943313598633 34.51588439941406
C 50.556495666503906 45.386009216308594 34.956295013427734
C 46.21434783935547 46.901615142822266 35.806453704833984
C 52.2333984375 47.9380989074707 38.75366973876953
C 51.1136474609375 48.7358283996582 34.68906021118164
C 50.3807373046875 46.54765319824219 34.1963005065918
C 50.62330627441406 50.46255874633789 36.0732307434082
C 48.13169860839844 45.115726470947266 35.09808349609375
C 51.64380645751953 44.908851623535156 37.0859375
C 51.34516143798828 45.43037796020508 39.22914505004883
C 51.12974548339844 50.106014251708984 38.37089920043945
C 51.51556396484375 47.71976852416992 39.89276885986328
C 45.79365539550781 47.40361404418945 37.967655181884766
C 50.52043914794922 44.20634460449219 37.53093719482422
C 48.0338134765625 46.31854248046875 34.383758544921875
C 49.03794860839844 50.25004196166992 39.22971725463867
C 49.068397521972656 50.800418853759766 37.94797134399414
C 48.18658447265625 50.38615036010742 35.773258209228516
C 47.49181365966797 48.50216293334961 34.3906135559082
C 48.71094512939453 45.706546783447266 40.21272659301758
C 47.928672790527344 44.516754150390625 38.493377685546875
C 47.17024230957031 49.52022171020508 35.3432502746582
C 47.11839294433594 47.489810943603516 40.04766082763672
C 54.480018615722656 47.51602554321289 36.2757453918457
N 54.87120819091797 46.99101257324219 35.187313079833984
C 53.77464294433594 46.245174407958984 34.50737380981445
H 53.929405212402344 45.164127349853516 34.55255126953125
H 53.82246398925781 46.553802490234375 33.45994186401367
C 57.29247283935547 48.63149642944336 39.396480560302734
C 56.37376403808594 49.567203521728516 38.91771697998047
H 56.204978942871094 50.5482292175293 39.3543815612793
C 55.44239807128906 49.184085845947266 37.867313385009766
H 54.820762634277344 49.95881271362305 37.42580032348633
C 55.414894104003906 47.86142349243164 37.332637786865234
C 57.23475646972656 47.34169387817383 38.80129623413086
H 57.8367919921875 46.581298828125 39.292137145996094
C 56.330528259277344 46.96409606933594 37.79419708251953
H 56.390708923339844 45.97722625732422 37.342491149902344
C 58.080352783203125 48.955875396728516 40.64505386352539
C 57.88713836669922 50.32346725463867 41.21450424194336
C 58.16626739501953 51.614376068115234 40.744911193847656
H 58.77619171142578 51.89271926879883 39.89183807373047
C 57.76457977294922 52.48086166381836 41.80221939086914
H 57.762916564941406 53.56575393676758 41.787235260009766
C 57.388526916503906 51.689205169677734 42.85350799560547
N 57.450408935546875 50.39594650268555 42.53569412231445
H 57.239715576171875 49.703006744384766 43.24107360839844
C 56.73394775390625 52.10348892211914 44.098045349121094
H 56.417335510253906 53.13985824584961 44.20585250854492
C 56.625160217285156 51.3620491027832 45.24775314331055
C 55.38006591796875 51.21182632446289 45.86161422729492
H 54.43357849121094 51.70573043823242 45.668094635009766
C 55.59337615966797 50.12839889526367 46.66532516479492
H 54.87776184082031 49.6068000793457 47.29227828979492
C 56.98808288574219 49.74921798706055 46.66164779663086
N 57.55792236328125 50.459468841552734 45.716732025146484
C 57.65465545654297 48.6652717590332 47.4539909362793
C 58.68773651123047 47.97163772583008 46.931819915771484
C 59.77386474609375 47.34805679321289 47.60676956176758
H 59.9415283203125 47.38792037963867 48.67799758911133
C 60.59437561035156 46.71816635131836 46.61958694458008
H 61.59846496582031 46.33242416381836 46.76185989379883
C 60.08055114746094 46.986061096191406 45.32306671142578
N 58.958946228027344 47.6533088684082 45.62114715576172
H 58.23363494873047 47.87454605102539 44.95248794555664
C 60.54664611816406 46.68482208251953 44.0463981628418
H 61.36097717285156 45.961910247802734 44.03293228149414
C 60.081329345703125 46.972496032714844 42.73216247558594
C 60.58289337158203 46.58311462402344 41.429466247558594
H 61.39994812011719 45.90028381347656 41.2211799621582
C 59.89850616455078 47.32845687866211 40.50986862182617
H 60.13592529296875 47.4997444152832 39.465110778808594
C 58.88328552246094 47.99562454223633 41.19368362426758
N 59.04865264892578 47.77781295776367 42.50855255126953
C 56.42439270019531 47.81489944458008 51.547603607177734
C 56.90021514892578 46.75969314575195 50.75712203979492
H 57.110809326171875 45.78712844848633 51.19455337524414
C 57.313148498535156 47.088706970214844 49.415096282958984
H 57.80030822753906 46.27962875366211 48.87691879272461
C 57.23113250732422 48.39419174194336 48.89059066772461
C 56.11419677734375 49.04030227661133 51.001583099365234
H 55.50926208496094 49.76974105834961 51.5340690612793
C 56.49009704589844 49.35007095336914 49.63755416870117
H 56.35668182373047 50.34959030151367 49.23167037963867
N 56.187705993652344 47.49013900756836 52.89408493041992
H 56.9835205078125 47.47249984741211 53.51412582397461
C 54.932090759277344 47.473819732666016 53.43183517456055
O 53.983123779296875 47.3631477355957 52.72844314575195
C 54.86787414550781 47.587764739990234 54.92661666870117
C 53.60917663574219 47.69522476196289 55.48112869262695
H 52.68275451660156 47.60697555541992 54.91941452026367
C 53.39805603027344 47.73427963256836 56.880062103271484
C 54.544403076171875 47.54033279418945 57.63181686401367
H 54.382347106933594 47.56047439575195 58.706485748291016
C 55.81568145751953 47.34390640258789 57.114925384521484
H 56.63487243652344 47.17850112915039 57.81000900268555
C 55.99458312988281 47.40827560424805 55.77888107299805
H 56.974334716796875 47.089012145996094 55.4328727722168
C 52.03013610839844 47.91469955444336 57.338680267333984
H 51.311370849609375 48.138240814208984 56.55170822143555
C 51.56831359863281 47.89689254760742 58.64230728149414
H 52.241233825683594 47.60713577270508 59.448001861572266
C 50.14299011230469 48.01906204223633 59.05965805053711
C 49.19719696044922 47.434146881103516 58.06918716430664
H 49.097923278808594 47.98250198364258 57.13007736206055
H 48.200225830078125 47.21810531616211 58.4588508605957
H 49.6417236328125 46.503623962402344 57.71006393432617
C 49.719459533691406 48.643978118896484 60.14230728149414
H 50.54779815673828 49.000240325927734 60.752933502197266
C 48.33893585205078 48.94717788696289 60.5770149230957
H 47.529273986816406 48.740848541259766 59.87858963012695
C 48.072593688964844 49.31264877319336 61.84840774536133
H 48.931541442871094 49.53475570678711 62.479915618896484
C 46.713279724121094 49.49876022338867 62.34992599487305
C 46.628440856933594 50.526737213134766 63.433284759521484
H 47.403358459472656 51.27884292602539 63.27109146118164
H 45.72411346435547 51.13136672973633 63.33797073364258
H 46.760597229003906 50.085018157958984 64.42316436767578
C 45.60380554199219 48.846981048583984 61.92788314819336
H 45.802955627441406 48.086429595947266 61.17434310913086
C 44.1641845703125 49.07011032104492 62.299190521240234
H 43.82182312011719 49.787899017333984 63.043155670166016
C 43.10145568847656 48.545223236083984 61.64081954956055
H 43.20318603515625 47.90957260131836 60.762454986572266
C 41.762237548828125 48.91586685180664 61.945919036865234
H 41.65397644042969 49.30177688598633 62.9584846496582
C 40.69499206542969 48.94144821166992 61.11581039428711
C 40.766258239746094 48.32432174682617 59.77766036987305
H 39.8043212890625 48.27223587036133 59.2634391784668
H 41.533729553222656 48.79679489135742 59.16103744506836
H 41.10016632080078 47.292728424072266 59.90719223022461
C 39.39989471435547 49.359989166259766 61.5853157043457
H 39.16887664794922 49.2778205871582 62.646358489990234
C 38.41749572753906 49.7593879699707 60.71458053588867
H 38.657630920410156 49.83389663696289 59.65500259399414
C 37.08064270019531 50.051578521728516 61.21623611450195
H 37.048587799072266 50.31387710571289 62.2726936340332
C 35.980133056640625 50.201656341552734 60.455692291259766
C 35.969970703125 50.099849700927734 58.981449127197266
H 35.911949157714844 49.04336166381836 58.711429595947266
H 35.10994338989258 50.579898834228516 58.509891510009766
H 36.86859130859375 50.51096725463867 58.51676559448242
C 34.6804313659668 50.4504280090332 61.014408111572266
H 33.88017654418945 49.90846633911133 60.51261520385742
C 34.39989471435547 51.21120071411133 62.115421295166016
H 35.075531005859375 51.86299514770508 62.66732406616211
C 33.06508255004883 51.3480339050293 62.63724899291992
C 32.408470153808594 50.2252311706543 62.98281478881836
C 32.85658264160156 48.8217887878418 63.13438034057617
H 33.89807891845703 48.79465103149414 63.46150588989258
H 32.282135009765625 48.13410568237305 63.758541107177734
H 32.85163497924805 48.29098129272461 62.18008804321289
C 30.98476791381836 50.23398971557617 63.37221145629883
H 31.095844268798828 50.14309310913086 64.4547348022461
H 30.435840606689453 49.42069625854492 62.892940521240234
C 30.2056884765625 51.599185943603516 63.23854446411133
H 29.283302307128906 51.601924896240234 63.823055267333984
H 29.865676879882812 51.763729095458984 62.21395492553711
C 31.265796661376953 52.62839889526367 63.73746871948242
H 30.893447875976562 53.60884475708008 64.04168701171875
H 31.712646484375 52.24490737915039 64.65709686279297
C 32.42667007446289 52.78018569946289 62.795711517333984
C 32.07358169555664 53.39986038208008 61.49142837524414
H 32.928096771240234 53.72513198852539 60.89438247680664
H 31.32583999633789 52.87936782836914 60.889408111572266
H 31.564266204833984 54.31318283081055 61.80592727661133
C 33.376617431640625 53.852054595947266 63.427730560302734
H 32.85934829711914 54.773128509521484 63.7043342590332
H 33.797943115234375 53.42033767700195 64.33798217773438
H 34.17390060424805 54.04751205444336 62.70759201049805
