207
Triad, Carotenoid-Porphyrin-C60
C 56.02177429199219 40.72632598876953 56.78791046142578
C 57.15638732910156 40.929298400878906 50.375892639160156
C 56.350467681884766 42.551719665527344 51.774925231933594
C 56.34368133544922 43.08868408203125 54.134552001953125
C 58.43610382080078 38.78253936767578 50.654903411865234
C 57.30085372924805 39.51426696777344 50.234092712402344
C 59.386962890625 40.8525390625 51.2844123840332
C 58.4619026184082 42.96396255493164 52.99275207519531
C 58.27721405029297 40.82799530029297 56.97248077392578
C 59.51716613769531 39.44523620605469 51.12005615234375
C 56.410823822021484 41.94972610473633 56.269935607910156
C 58.157127380371094 36.40058517456055 53.33985137939453
C 58.10444259643555 37.543277740478516 51.177825927734375
C 58.019508361816406 36.998016357421875 55.6840705871582
C 59.48311996459961 38.86610412597656 56.189048767089844
C 58.37274932861328 38.064910888671875 56.504390716552734
C 59.851539611816406 37.750728607177734 52.78569793701172
C 60.068031311035156 41.16993713378906 52.50533676147461
C 59.53902816772461 42.182743072509766 53.31681442260742
C 60.098819732666016 40.84480667114258 55.28268814086914
C 53.48029327392578 39.671085357666016 52.89161682128906
C 54.317161560058594 38.68132019042969 52.14400100708008
C 54.09272766113281 40.95425033569336 52.40894317626953
C 54.92246627807617 40.659645080566406 51.29591751098633
C 56.131431579589844 37.941524505615234 56.52370071411133
C 54.868255615234375 37.523353576660156 52.709815979003906
C 55.658103942871094 42.49470138549805 55.184444427490234
C 56.71168899536133 36.39704132080078 53.345001220703125
C 56.698978424072266 37.46044158935547 51.12477111816406
C 56.62690734863281 37.0034294128418 55.648101806640625
C 54.582191467285156 42.002113342285156 53.262794494628906
C 59.8477897644043 37.58321762084961 54.191558837890625
C 60.23109817504883 38.65108108520508 55.0263786315918
C 59.53579330444336 42.018821716308594 54.70819091796875
C 60.56647872924805 40.03679275512695 53.075557708740234
C 53.438262939453125 39.56005859375 54.44277572631836
C 54.27603530883789 38.36650466918945 54.97380828857422
C 54.18222427368164 40.58451843261719 55.27048110961914
C 54.98461151123047 38.69809341430664 56.15599060058594
C 59.425506591796875 40.24102020263672 56.425662994384766
C 55.08645248413086 39.288230895996094 51.17242431640625
C 54.588993072509766 41.78035354614258 54.67280197143555
C 54.89828872680664 40.04745101928711 56.3231086730957
C 55.671566009521484 42.85411834716797 52.96280288696289
C 57.248497009277344 38.65484619140625 57.04214096069336
C 54.82440948486328 37.396419525146484 54.08147048950195
C 56.034759521484375 36.96339797973633 52.267940521240234
C 55.98863983154297 41.438072204589844 50.96211242675781
C 56.24456787109375 38.66322708129883 50.62399673461914
C 60.6657600402832 39.855369567871094 54.47385787963867
C 55.941246032714844 36.674800872802734 54.48299026489258
C 57.17454147338867 40.00995635986328 57.20420837402344
C 58.2067756652832 41.56157684326172 50.97859573364258
C 57.734336853027344 42.58161163330078 51.81260299682617
C 57.745121002197266 43.18684768676758 54.16393280029297
C 57.78425979614258 42.01441192626953 56.35580825805664
C 58.79447555541992 36.981319427490234 52.25255584716797
C 58.841495513916016 36.724945068359375 54.52401351928711
C 58.40788650512695 42.63397979736328 55.26935958862305
C 60.21510314941406 38.970706939697266 52.24156951904297
C 51.99583053588867 39.59767532348633 52.56497573852539
N 51.17153549194336 39.54901885986328 53.55229949951172
C 51.95915222167969 39.41884994506836 54.74432373046875
H 51.72029113769531 38.54851150512695 55.36085510253906
H 51.63018035888672 40.21568298339844 55.41625213623047
C 50.287384033203125 39.25068283081055 48.633567810058594
C 50.028892517089844 38.2561149597168 49.638954162597656
H 49.34749984741211 37.423988342285156 49.481353759765625
C 50.64348602294922 38.34331512451172 50.865684509277344
H 50.3907470703125 37.670257568359375 51.680965423583984
C 51.52171325683594 39.40102005004883 51.18284606933594
C 51.196693420410156 40.28135299682617 48.98185348510742
H 51.46574783325195 41.070228576660156 48.28409957885742
C 51.789127349853516 40.368553161621094 50.22102355957031
H 52.448787689208984 41.178165435791016 50.522605895996094
C 49.58868408203125 39.20903396606445 47.26233673095703
C 48.4819221496582 38.20918273925781 47.125980377197266
C 48.54169464111328 36.86851501464844 47.136199951171875
H 49.40207290649414 36.22981262207031 47.30661392211914
C 47.19752883911133 36.34608459472656 47.017333984375
H 46.86349105834961 35.31389236450195 47.00239181518555
C 46.37789535522461 37.44390869140625 46.79006576538086
N 47.16292953491211 38.608123779296875 46.8630256652832
H 46.8485107421875 39.5360107421875 46.61345291137695
C 44.971126556396484 37.5257568359375 46.47651672363281
H 44.44662857055664 36.57319641113281 46.41770553588867
C 44.22657012939453 38.57650375366211 46.03267288208008
C 42.81282043457031 38.54034423828125 45.83399200439453
H 42.22467803955078 37.62859344482422 45.83904266357422
C 42.512752532958984 39.76513671875 45.282806396484375
H 41.57541275024414 39.967716217041016 44.7752799987793
C 43.669532775878906 40.61852264404297 45.27469253540039
N 44.713748931884766 39.8665885925293 45.72975158691406
C 43.91383743286133 41.999603271484375 44.70484161376953
C 45.12865447998047 42.32810592651367 44.030948638916016
C 45.29901123046875 42.873470306396484 42.6798095703125
H 44.419090270996094 43.00819778442383 42.059478759765625
C 46.6527214050293 42.9205207824707 42.42010498046875
H 47.17905807495117 43.17525863647461 41.50615310668945
C 47.418209075927734 42.38117218017578 43.50524139404297
N 46.40209197998047 42.00840759277344 44.38662338256836
H 46.562870025634766 41.69083786010742 45.33289337158203
C 48.724822998046875 42.20393371582031 43.596839904785156
H 49.3877067565918 42.68965530395508 42.88228988647461
C 49.455806732177734 41.521934509277344 44.66123580932617
C 50.88802719116211 41.29734802246094 44.753318786621094
H 51.60498809814453 41.671974182128906 44.030235290527344
C 51.0989875793457 40.47372817993164 45.8758659362793
H 52.0322380065918 40.013755798339844 46.183589935302734
C 49.87531280517578 40.21998977661133 46.37151336669922
N 48.91114807128906 40.85409164428711 45.64032745361328
C 40.96144485473633 45.09619903564453 45.429237365722656
C 42.11613845825195 45.328670501708984 44.70796203613281
H 42.07614517211914 46.227882385253906 44.098541259765625
C 43.07274627685547 44.347740173339844 44.47282028198242
H 43.89825439453125 44.583900451660156 43.806236267089844
C 42.92448043823242 43.05391311645508 44.94789505004883
C 40.76814651489258 43.84466552734375 45.98823165893555
H 39.96464157104492 43.599609375 46.67808532714844
C 41.78839111328125 42.83488464355469 45.75736618041992
H 41.78203582763672 41.95336151123047 46.39332580566406
N 39.921844482421875 46.02584457397461 45.538978576660156
H 39.05723190307617 45.74693298339844 45.0999641418457
C 40.02322769165039 47.346614837646484 45.82797622680664
O 41.121639251708984 47.75093078613281 46.21873092651367
C 38.791194915771484 48.22913360595703 45.9773063659668
C 38.93259811401367 49.55127716064453 46.298919677734375
H 39.96104049682617 49.81694793701172 46.52977752685547
C 37.83846664428711 50.402870178222656 46.36697769165039
C 36.517059326171875 49.89369201660156 46.06185531616211
H 35.624820709228516 50.5128288269043 46.0154914855957
C 36.4082145690918 48.502254486083984 45.74932098388672
H 35.42621994018555 48.139312744140625 45.45685958862305
C 37.5244026184082 47.71843719482422 45.68763732910156
H 37.51089096069336 46.651363372802734 45.480899810791016
C 38.014122009277344 51.797584533691406 46.78261184692383
H 39.08564758300781 51.88353729248047 46.956905364990234
C 37.12171173095703 52.78017044067383 46.907073974609375
H 36.09009552001953 52.47089385986328 46.74570846557617
C 37.40092849731445 54.12601852416992 47.2549934387207
C 36.23954391479492 54.95553970336914 47.4740104675293
H 36.11177444458008 55.70457458496094 46.689735412597656
H 36.219844818115234 55.42738342285156 48.45861053466797
H 35.360599517822266 54.30963134765625 47.52615737915039
C 38.62364959716797 54.67223358154297 47.235633850097656
H 39.43119812011719 54.0157356262207 46.91502380371094
C 38.99909591674805 56.0433464050293 47.52544403076172
H 38.23268508911133 56.69658279418945 47.93996047973633
C 40.17014694213867 56.62955093383789 47.37158966064453
H 40.86757278442383 55.99136734008789 46.830997467041016
C 40.57619094848633 57.976402282714844 47.70633316040039
C 40.29558181762695 58.4865837097168 49.09037780761719
H 39.8494758605957 59.483245849609375 49.07952880859375
H 39.68370056152344 57.762428283691406 49.632286071777344
H 41.2404899597168 58.44890213012695 49.63644027709961
C 41.432281494140625 58.59530258178711 46.850746154785156
H 41.70198059082031 58.04267120361328 45.95198059082031
C 42.105587005615234 59.874088287353516 47.01652908325195
H 41.97032165527344 60.50398254394531 47.8945198059082
C 43.026145935058594 60.22933578491211 46.20063781738281
H 43.314598083496094 59.552024841308594 45.398162841796875
C 43.8867301940918 61.41289138793945 46.21287155151367
H 43.540828704833984 62.19626998901367 46.8856201171875
C 44.91604232788086 61.80497360229492 45.47256088256836
C 45.36209487915039 60.918514251708984 44.41644287109375
H 46.31081008911133 61.25455856323242 43.992801666259766
H 45.557193756103516 59.89286422729492 44.73651123046875
H 44.561302185058594 60.90578842163086 43.67412567138672
C 45.574275970458984 63.08351135253906 45.456565856933594
H 46.106239318847656 63.39376449584961 44.558406829833984
C 45.714134216308594 63.902286529541016 46.50536346435547
H 45.198543548583984 63.67738723754883 47.43783950805664
C 46.63688659667969 65.03105163574219 46.50061798095703
H 46.6445426940918 65.60253143310547 45.573646545410156
C 47.35484313964844 65.45561981201172 47.52680206298828
C 47.31818389892578 64.77806854248047 48.80950164794922
H 47.30077362060547 63.68828201293945 48.742374420166016
H 48.19249725341797 65.07443237304688 49.39278030395508
H 46.420475006103516 65.12284851074219 49.3269157409668
C 48.29439926147461 66.61750030517578 47.35201644897461
H 49.061126708984375 66.64070892333984 48.12500762939453
C 48.29962921142578 67.6167221069336 46.41899490356445
H 47.549591064453125 67.60081481933594 45.62961959838867
C 49.345367431640625 68.65042877197266 46.259246826171875
C 50.67595672607422 68.43424224853516 46.194393157958984
C 51.33905792236328 67.05227661132812 46.0387077331543
H 50.6163330078125 66.27302551269531 46.289527893066406
H 51.61638641357422 66.90898132324219 44.99227523803711
H 52.24598693847656 66.9353256225586 46.63559341430664
C 51.70799255371094 69.49918365478516 46.15851974487305
H 52.551185607910156 69.1876220703125 45.53850555419922
H 52.116363525390625 69.54528045654297 47.17024230957031
C 51.15264129638672 70.79606628417969 45.65338897705078
H 51.0794792175293 70.72820281982422 44.56595993041992
H 51.827781677246094 71.63519287109375 45.833740234375
C 49.83481216430664 71.12076568603516 46.33857345581055
H 50.066219329833984 71.23255920410156 47.399898529052734
H 49.46017837524414 72.07300567626953 45.95732879638672
C 48.76423645019531 70.06068420410156 46.12849426269531
C 47.61140060424805 70.40381622314453 47.1379280090332
H 47.78718566894531 70.01831817626953 48.144378662109375
H 47.439022064208984 71.48211669921875 47.14323043823242
H 46.706336975097656 69.85859680175781 46.862125396728516
C 48.103851318359375 70.27456665039062 44.74893569946289
H 48.24296951293945 71.30876159667969 44.42713928222656
H 48.73936462402344 69.6611557006836 44.1068229675293
H 47.09921646118164 69.88298797607422 44.57619094848633
