207
Triad, Carotenoid-Porphyrin-C60
C 37.67469787597656 59.25749969482422 35.3111457824707
C 39.19572448730469 53.114776611328125 33.9070930480957
C 37.81812286376953 53.90186309814453 35.44648361206055
C 36.482566833496094 55.92913055419922 36.0200309753418
C 40.177696228027344 53.90394592285156 31.748077392578125
C 40.30168151855469 53.43412780761719 33.046302795410156
C 37.81513214111328 53.84014892578125 32.02660369873047
C 36.07011413574219 54.76066207885742 33.992000579833984
C 36.4769287109375 59.03778076171875 33.45793914794922
C 38.914939880371094 54.07870101928711 31.267452239990234
C 36.66120910644531 58.31276321411133 35.63239669799805
C 41.303375244140625 57.19843673706055 31.035690307617188
C 41.17124938964844 54.80954360961914 31.471561431884766
C 40.06629943847656 59.18650817871094 31.59789276123047
C 37.657142639160156 58.910213470458984 31.295696258544922
C 38.75181579589844 59.57831954956055 31.893383026123047
C 39.60951232910156 56.06645202636719 30.103561401367188
C 36.80028533935547 54.682132720947266 31.664630889892578
C 35.88471221923828 55.182899475097656 32.62797164916992
C 36.12451934814453 57.37339782714844 31.75878143310547
C 41.1827392578125 56.21569061279297 36.71555709838867
C 41.85669708251953 55.74796676635742 35.37581253051758
C 39.97565460205078 55.22185134887695 36.67021942138672
C 40.2666015625 54.13954544067383 35.79746627807617
C 39.93067169189453 59.76618576049805 33.761695861816406
C 42.25740051269531 56.62759017944336 34.38040542602539
C 36.975830078125 57.17888259887695 36.4152717590332
C 42.008705139160156 57.33953094482422 32.23688507080078
C 41.851837158203125 54.93498229980469 32.6871452331543
C 40.80401611328125 59.372867584228516 32.780517578125
C 38.637115478515625 55.67763137817383 36.8538703918457
C 39.285888671875 57.46072769165039 30.153289794921875
C 37.933929443359375 57.83839797973633 30.50020980834961
C 35.59101104736328 56.52642059326172 32.703128814697266
C 37.28440856933594 55.513755798339844 30.685604095458984
C 40.80004119873047 57.78102493286133 36.783870697021484
C 41.154815673828125 58.522640228271484 35.42393493652344
C 39.27861785888672 58.02215576171875 36.77504348754883
C 40.089927673339844 59.32535171508789 35.06843948364258
C 36.529266357421875 58.653541564941406 32.11848831176758
C 41.36492156982422 54.46619415283203 35.003883361816406
C 38.300315856933594 57.04652404785156 36.89628601074219
C 38.994476318359375 59.07405090332031 35.88322830200195
C 37.54081726074219 55.00130844116211 36.28921127319336
C 38.675498962402344 59.947017669677734 33.23422622680664
C 41.869041442871094 57.97942352294922 34.35860824584961
C 42.24419403076172 56.22067642211914 33.04125213623047
C 39.14344024658203 53.482025146484375 35.22504425048828
C 41.36119079589844 54.087642669677734 33.60873031616211
C 36.9951171875 56.88737869262695 30.73147201538086
C 41.81843566894531 58.411563873291016 33.09459686279297
C 37.55634307861328 59.599185943603516 33.98307800292969
C 37.91192626953125 53.372982025146484 33.32431411743164
C 37.033912658691406 53.803802490234375 34.29042434692383
C 35.742225646972656 55.81159973144531 34.87766647338867
C 35.977149963378906 58.16545867919922 34.41611099243164
C 40.855628967285156 55.929447174072266 30.66046905517578
C 40.31254577636719 58.13640213012695 30.72537612915039
C 35.49488067626953 56.930240631103516 34.02989196777344
C 38.625823974609375 55.142677307128906 30.39874267578125
C 41.96399688720703 56.0528450012207 37.94819641113281
N 42.00559997558594 57.03437423706055 38.750892639160156
C 41.475379943847656 58.24691390991211 38.13344192504883
H 42.3385009765625 58.90401840209961 37.999671936035156
H 40.8240966796875 58.67125701904297 38.90182113647461
C 43.77598571777344 52.18995666503906 38.8758659362793
C 44.4781494140625 53.320701599121094 38.47779083251953
H 45.550559997558594 53.278621673583984 38.305381774902344
C 43.987266540527344 54.555328369140625 38.16858673095703
H 44.63542938232422 55.341468811035156 37.789859771728516
C 42.57867431640625 54.753231048583984 38.274349212646484
C 42.38627624511719 52.38606643676758 39.009212493896484
H 41.775718688964844 51.52089309692383 39.254695892333984
C 41.83424377441406 53.635562896728516 38.73643112182617
H 40.75404357910156 53.75407791137695 38.76274108886719
C 44.475189208984375 50.9305305480957 39.3350944519043
C 45.939361572265625 50.88682556152344 39.35127639770508
C 46.92083740234375 51.229793548583984 38.387874603271484
H 46.79331970214844 51.59736251831055 37.375030517578125
C 48.19586944580078 50.999298095703125 38.92991638183594
H 49.08872985839844 51.40629577636719 38.46689987182617
C 48.06788635253906 50.57264709472656 40.2099609375
N 46.669830322265625 50.467403411865234 40.444801330566406
H 46.28657531738281 50.32048034667969 41.36873245239258
C 49.050743103027344 50.26626205444336 41.256839752197266
H 50.02256774902344 50.71778106689453 41.06291961669922
C 48.83623504638672 49.754295349121094 42.486629486083984
C 49.505279541015625 50.26105499267578 43.683441162109375
H 50.10444641113281 51.16538619995117 43.66337203979492
C 49.047096252441406 49.436248779296875 44.64047622680664
H 49.238563537597656 49.47788619995117 45.707637786865234
C 48.20167541503906 48.444923400878906 44.019737243652344
N 48.147361755371094 48.604366302490234 42.699275970458984
C 47.47455596923828 47.42105484008789 44.77214050292969
C 46.14643096923828 47.013797760009766 44.46390151977539
C 45.41314697265625 45.78036880493164 44.6641845703125
H 45.764747619628906 45.022403717041016 45.356346130371094
C 44.248374938964844 45.763587951660156 43.89606475830078
H 43.52178192138672 44.9619255065918 43.81461715698242
C 44.24949645996094 46.89464569091797 43.031761169433594
N 45.35713195800781 47.54496383666992 43.45705795288086
H 45.555389404296875 48.49396896362305 43.170352935791016
C 43.278282165527344 47.19783401489258 42.065643310546875
H 42.58430480957031 46.368465423583984 41.93733215332031
C 43.11254119873047 48.31870651245117 41.10368728637695
C 42.15808868408203 48.39902877807617 40.06496810913086
H 41.33186340332031 47.70078659057617 39.98112869262695
C 42.67401885986328 49.27687454223633 39.182559967041016
H 42.44801330566406 49.42251205444336 38.13140106201172
C 43.670074462890625 49.933204650878906 39.85835647583008
N 43.90838623046875 49.37936782836914 40.964508056640625
C 49.52745056152344 45.653099060058594 48.247318267822266
C 48.15826416015625 45.638916015625 48.13596725463867
H 47.672027587890625 45.03771209716797 48.89997482299805
C 47.439353942871094 46.301753997802734 47.09877395629883
H 46.35289001464844 46.29436111450195 47.13212585449219
C 48.155662536621094 46.93605422973633 46.06045150756836
C 50.152992248535156 46.2877311706543 47.24994659423828
H 51.22346496582031 46.41536331176758 47.389129638671875
C 49.525611877441406 46.955902099609375 46.169734954833984
H 50.16847229003906 47.33085632324219 45.3774528503418
N 50.303306579589844 44.88473129272461 49.20296859741211
H 51.10655975341797 44.554447174072266 48.68937683105469
C 50.11683654785156 44.76462936401367 50.54950714111328
O 49.309967041015625 45.471107482910156 51.15779495239258
C 51.02825927734375 43.76691436767578 51.32096862792969
C 50.81092834472656 43.60875701904297 52.612998962402344
H 50.06183624267578 44.25812911987305 53.058799743652344
C 51.673095703125 42.74920654296875 53.347679138183594
C 52.64772033691406 41.97602081298828 52.6815185546875
H 53.39403533935547 41.331024169921875 53.138206481933594
C 52.82725524902344 42.14153289794922 51.307212829589844
H 53.550994873046875 41.52859878540039 50.776100158691406
C 51.999122619628906 43.00996017456055 50.59587478637695
H 52.083656311035156 43.19125747680664 49.52743911743164
C 51.579505920410156 42.67898178100586 54.854652404785156
H 50.63867950439453 43.159515380859375 55.118934631347656
C 52.46063995361328 42.12514114379883 55.69702911376953
H 53.330047607421875 41.61797332763672 55.28129577636719
C 52.35003662109375 42.21229553222656 57.14533996582031
C 50.992774963378906 42.257667541503906 57.752960205078125
H 50.806663513183594 43.15858840942383 58.34131622314453
H 50.80036926269531 41.40983963012695 58.41374206542969
H 50.237144470214844 42.2337646484375 56.96498107910156
C 53.399139404296875 42.2806282043457 57.85706329345703
H 54.344093322753906 42.36360549926758 57.322174072265625
C 53.44446563720703 42.531124114990234 59.28350830078125
H 52.57646179199219 42.3411865234375 59.913116455078125
C 54.593955993652344 42.68707275390625 59.8638916015625
H 55.499122619628906 42.57501220703125 59.268882751464844
C 54.86932373046875 42.73682403564453 61.27989196777344
C 53.76005554199219 42.49142837524414 62.16609191894531
H 54.011627197265625 42.67207336425781 63.2132568359375
H 53.030860900878906 43.28643035888672 61.99665069580078
H 53.316162109375 41.49372100830078 62.164649963378906
C 56.10418701171875 42.806331634521484 61.68901062011719
H 56.78187561035156 43.25910949707031 60.966758728027344
C 56.74226379394531 42.590171813964844 63.00891876220703
H 56.10746765136719 42.2411994934082 63.822044372558594
C 58.0357666015625 42.752471923828125 63.21409606933594
H 58.618141174316406 43.06216812133789 62.34757995605469
C 58.69523620605469 42.546871185302734 64.50624084472656
H 58.11521911621094 42.10243606567383 65.3136978149414
C 59.946266174316406 42.87686538696289 64.7226791381836
C 60.77503204345703 43.62790298461914 63.80848693847656
H 61.682159423828125 43.98003387451172 64.30406188964844
H 61.14836120605469 42.968448638916016 63.02222442626953
H 60.137489318847656 44.40880584716797 63.38874053955078
C 60.57420349121094 42.55893325805664 66.00137329101562
H 61.49784851074219 43.11629867553711 66.15018463134766
C 60.15284729003906 41.73795700073242 66.9424819946289
H 59.22431945800781 41.173248291015625 66.8728256225586
C 60.95453643798828 41.61701202392578 68.1780776977539
H 61.77000427246094 42.3197021484375 68.3428726196289
C 60.76567077636719 40.72064971923828 69.12844848632812
C 59.6588134765625 39.75513458251953 69.12080383300781
H 59.591346740722656 39.26190185546875 68.14888000488281
H 59.561851501464844 39.000892639160156 69.90451049804688
H 58.74024200439453 40.342891693115234 69.17765808105469
C 61.498191833496094 40.78148651123047 70.36671447753906
H 61.366233825683594 39.82283020019531 70.86620330810547
C 62.235328674316406 41.728736877441406 71.02395629882812
H 62.27906036376953 42.647552490234375 70.44104766845703
C 62.7376708984375 41.64360809326172 72.41250610351562
C 63.07184600830078 40.49833679199219 73.10018157958984
C 63.248863220214844 39.13930130004883 72.50948333740234
H 62.35625457763672 38.52317428588867 72.63638305664062
H 63.55651092529297 39.31863021850586 71.47718048095703
H 64.05867767333984 38.574825286865234 72.97640991210938
C 63.39268493652344 40.384456634521484 74.52778625488281
H 64.47502136230469 40.488704681396484 74.6284408569336
H 63.068260192871094 39.44851303100586 74.98737335205078
C 62.73743438720703 41.57054138183594 75.32559204101562
H 63.0306396484375 41.472808837890625 76.3729476928711
H 61.654212951660156 41.55060577392578 75.4623031616211
C 63.12628936767578 42.84476852416992 74.61972045898438
H 62.903099060058594 43.77952194213867 75.13827514648438
H 64.21693420410156 42.87574005126953 74.66439056396484
C 62.62549591064453 42.92660903930664 73.19510650634766
C 61.14820098876953 43.2591552734375 73.31391143798828
H 60.66407012939453 43.27064514160156 72.33515930175781
H 60.63728332519531 42.42511749267578 73.79950714111328
H 60.91825866699219 44.165130615234375 73.87852478027344
C 63.17811584472656 44.21808624267578 72.56781768798828
H 62.84143829345703 44.43567657470703 71.55205535888672
H 62.97917938232422 45.10382080078125 73.17474365234375
H 64.2693862915039 44.18316650390625 72.58715057373047
