207
Triad, Carotenoid-Porphyrin-C60
C 38.37616729736328 54.324256896972656 43.724063873291016
C 43.02595520019531 52.318199157714844 39.623661041259766
C 40.74336624145508 52.16096115112305 39.43769073486328
C 38.81894302368164 53.262359619140625 40.32754898071289
C 44.72491455078125 53.41029357910156 40.94291305541992
C 44.04811477661133 52.254005432128906 40.57896041870117
C 43.248416900634766 54.632686614990234 39.40850830078125
C 40.42376708984375 54.56047821044922 39.1869010925293
C 39.101097106933594 56.213436126708984 42.898887634277344
C 44.37376403808594 54.66495132446289 40.32035446166992
C 38.12919998168945 54.344234466552734 42.352787017822266
C 44.35076904296875 54.51054000854492 44.34092712402344
C 45.06526565551758 53.410831451416016 42.28656005859375
C 42.3477897644043 55.557613372802734 45.24333953857422
C 41.32513427734375 57.04875183105469 43.684085845947266
C 41.20845031738281 56.27511215209961 44.84541320800781
C 44.48476791381836 55.7529182434082 42.516971588134766
C 42.46793746948242 55.757423400878906 39.66664505004883
C 41.074588775634766 55.746826171875 39.51844787597656
C 40.78608703613281 57.154380798339844 41.47938919067383
C 40.813682556152344 50.20378875732422 43.197906494140625
C 42.29908752441406 50.55105209350586 43.19027328491211
C 40.55093002319336 50.556976318359375 41.68919372558594
C 41.71689224243164 50.6304817199707 41.0192756652832
C 40.49263381958008 54.31850051879883 45.596473693847656
C 42.801353454589844 51.34328079223633 44.23413848876953
C 38.302467346191406 53.212154388427734 41.55177307128906
C 43.914634704589844 53.25527572631836 44.81448745727539
C 44.495697021484375 52.143558502197266 42.77507019042969
C 41.890384674072266 54.331905364990234 45.68709945678711
C 39.435569763183594 51.27803421020508 41.216026306152344
C 43.63874435424805 56.42997741699219 43.39830780029297
C 42.545291900634766 57.124427795410156 42.927791595458984
C 40.243778228759766 56.55434799194336 40.3310661315918
C 43.05206298828125 56.46817398071289 40.67966842651367
C 39.871971130371094 51.01693344116211 44.18571472167969
C 40.61384582519531 51.973575592041016 45.093814849853516
C 38.91117477416992 51.97759246826172 43.45622634887695
C 39.86408233642578 53.173824310302734 45.18524932861328
C 40.27248764038086 56.989654541015625 42.73505401611328
C 42.7913818359375 50.61198425292969 41.90861129760742
C 38.69845199584961 52.011009216308594 42.107574462890625
C 38.84158706665039 53.149593353271484 44.259056091308594
C 39.53057098388672 52.10546112060547 40.10348892211914
C 40.139991760253906 55.44163513183594 44.93202209472656
C 42.01703643798828 52.03362274169922 45.12624740600586
C 43.90351104736328 52.092735290527344 44.0162239074707
C 41.865760803222656 51.49472427368164 39.864437103271484
C 43.913978576660156 51.47713088989258 41.66828918457031
C 42.157386779785156 57.1578254699707 41.62181854248047
C 42.676273345947266 53.212554931640625 45.44270706176758
C 39.02799606323242 55.51591491699219 44.0664176940918
C 42.592105865478516 53.467315673828125 39.04392623901367
C 41.205169677734375 53.385887145996094 38.937278747558594
C 39.16337966918945 54.56291198730469 39.79844665527344
C 38.519718170166016 55.60210037231445 41.835391998291016
C 44.9064826965332 54.56678771972656 43.09027862548828
C 43.5511474609375 55.64380645751953 44.58648681640625
C 39.126502990722656 55.71260452270508 40.53887176513672
C 44.149051666259766 55.786964416503906 41.14756393432617
C 40.50191879272461 48.77302551269531 43.573829650878906
N 39.546043395996094 48.6572151184082 44.3981819152832
C 39.035728454589844 49.930450439453125 44.880088806152344
H 39.08869552612305 49.936893463134766 45.97178649902344
H 38.02680587768555 49.8598747253418 44.46567153930664
C 42.52128982543945 45.04609298706055 42.2629280090332
C 42.36122512817383 46.18330383300781 41.366641998291016
H 42.6747932434082 46.09929656982422 40.32925033569336
C 41.719932556152344 47.39609146118164 41.77067565917969
H 41.4774169921875 48.19214630126953 41.071353912353516
C 41.23030471801758 47.50632095336914 43.09067153930664
C 42.15381622314453 45.27201843261719 43.615623474121094
H 42.30646514892578 44.57246398925781 44.43347930908203
C 41.51325988769531 46.47880554199219 43.968074798583984
H 41.217857360839844 46.552093505859375 45.0115966796875
C 43.22951889038086 43.77040481567383 41.9454460144043
C 43.7221794128418 43.5595588684082 40.59033203125
C 43.11885070800781 43.57331085205078 39.356632232666016
H 42.099342346191406 43.86268997192383 39.12406539916992
C 44.08879089355469 43.24159622192383 38.41740798950195
H 43.944496154785156 43.3196907043457 37.34488296508789
C 45.26777648925781 42.92095184326172 39.02273941040039
N 45.0518798828125 43.17998123168945 40.32075119018555
H 45.79169464111328 43.11066818237305 41.00631332397461
C 46.56014633178711 42.574684143066406 38.451751708984375
H 46.48931884765625 42.6519889831543 37.3678092956543
C 47.66157150268555 42.04898452758789 38.98192596435547
C 48.773826599121094 41.57279586791992 38.22511672973633
H 48.878204345703125 41.67607116699219 37.15009689331055
C 49.60453414916992 41.08402633666992 39.19087219238281
H 50.563262939453125 40.601383209228516 39.032386779785156
C 48.983856201171875 41.315956115722656 40.51130676269531
N 47.76719665527344 41.88380813598633 40.32734680175781
C 49.36443328857422 40.95931625366211 41.93852615356445
C 48.41653060913086 40.33610534667969 42.77503967285156
C 48.53529357910156 39.029747009277344 43.39612579345703
H 49.44234848022461 38.43534469604492 43.4301872253418
C 47.308902740478516 38.71270751953125 43.9456672668457
H 47.085845947265625 37.845558166503906 44.558467864990234
C 46.36259078979492 39.74800109863281 43.80097579956055
N 47.1155891418457 40.58905029296875 42.985355377197266
H 46.70188522338867 41.46438217163086 42.6942024230957
C 45.0518913269043 39.815338134765625 44.08946228027344
H 44.660804748535156 38.91443634033203 44.5599479675293
C 44.1075553894043 40.87797546386719 43.67566680908203
C 42.686187744140625 40.86748504638672 43.83791732788086
H 42.13936996459961 40.145751953125 44.4356803894043
C 42.24007797241211 42.012332916259766 43.23434066772461
H 41.213844299316406 42.36180877685547 43.19029998779297
C 43.35690689086914 42.74015426635742 42.84560012817383
N 44.455135345458984 42.02141571044922 42.99125289916992
C 52.97966003417969 42.62525939941406 43.514915466308594
C 52.12375259399414 41.9306640625 44.35004806518555
H 52.42194747924805 41.72502899169922 45.374916076660156
C 50.96821212768555 41.334869384765625 43.86313247680664
H 50.255001068115234 40.962764739990234 44.59418869018555
C 50.64817810058594 41.43631362915039 42.497798919677734
C 52.69804382324219 42.722801208496094 42.203575134277344
H 53.445499420166016 43.33067321777344 41.700218200683594
C 51.52645492553711 42.155914306640625 41.70794677734375
H 51.36709976196289 42.174339294433594 40.632850646972656
N 54.24863052368164 42.93192672729492 44.04768371582031
H 54.21977233886719 43.10609436035156 45.04111862182617
C 55.50132751464844 42.972713470458984 43.51134490966797
O 55.70069885253906 42.6193733215332 42.35746765136719
C 56.649009704589844 43.452327728271484 44.421138763427734
C 56.34547424316406 43.73003005981445 45.74579620361328
H 55.32363510131836 43.54960632324219 46.069618225097656
C 57.39912033081055 44.134735107421875 46.615570068359375
C 58.680057525634766 44.362815856933594 46.06787872314453
H 59.30820083618164 44.895809173583984 46.77705001831055
C 58.948486328125 44.218528747558594 44.74345016479492
H 59.908016204833984 44.528804779052734 44.337730407714844
C 57.93735885620117 43.766326904296875 43.924068450927734
H 58.03448486328125 43.53022766113281 42.86747360229492
C 57.125335693359375 44.382320404052734 48.034305572509766
H 56.05125427246094 44.28664016723633 48.18635177612305
C 57.88976287841797 44.67524719238281 49.08430480957031
H 58.953697204589844 44.77748489379883 48.87570571899414
C 57.612213134765625 44.95252227783203 50.504695892333984
C 56.25507354736328 44.623836517333984 51.056854248046875
H 55.5805549621582 45.476409912109375 50.95388412475586
H 56.243404388427734 44.30088424682617 52.09994125366211
H 55.85870361328125 43.7642707824707 50.51233673095703
C 58.540191650390625 45.61839294433594 51.231468200683594
H 59.51972961425781 45.82257080078125 50.80165100097656
C 58.40304183959961 45.946807861328125 52.64876174926758
H 57.42953872680664 46.29274368286133 52.99306869506836
C 59.37809753417969 46.000389099121094 53.61253356933594
H 60.336334228515625 45.710350036621094 53.18406295776367
C 59.32533264160156 46.43568420410156 54.98012924194336
C 60.667327880859375 46.641357421875 55.65823745727539
H 61.039337158203125 47.659088134765625 55.52294158935547
H 60.56163787841797 46.33991241455078 56.70247268676758
H 61.38582229614258 45.99787521362305 55.14622497558594
C 58.1757698059082 46.77073287963867 55.527774810791016
H 57.283111572265625 46.5018310546875 54.96494674682617
C 58.070343017578125 47.502376556396484 56.77460479736328
H 58.93520736694336 48.09956359863281 57.05973815917969
C 56.98067092895508 47.51018142700195 57.569091796875
H 56.15301513671875 46.872291564941406 57.26248550415039
C 56.9132080078125 48.37079620361328 58.77922821044922
H 57.83449172973633 48.33231735229492 59.35860061645508
C 55.88758087158203 49.0570068359375 59.298030853271484
C 54.578739166259766 49.11198425292969 58.626285552978516
H 54.377769470214844 48.24128723144531 57.998626708984375
H 53.74264907836914 49.088741302490234 59.32833480834961
H 54.646934509277344 50.00154495239258 57.996604919433594
C 55.96018600463867 49.73057556152344 60.59444808959961
H 56.763362884521484 49.482704162597656 61.286827087402344
C 55.07693099975586 50.60042190551758 61.05451202392578
H 54.35870361328125 51.008583068847656 60.34494400024414
C 55.07216262817383 51.068294525146484 62.40086364746094
H 55.79033279418945 50.5965576171875 63.069908142089844
C 54.22369384765625 51.995601654052734 62.80669021606445
C 53.286376953125 52.747962951660156 61.9622802734375
H 53.10966491699219 53.733375549316406 62.39839172363281
H 53.67812728881836 53.0058479309082 60.97612762451172
H 52.371368408203125 52.182613372802734 61.77358627319336
C 54.07257843017578 52.29662322998047 64.23847961425781
H 54.331703186035156 51.46734619140625 64.89505004882812
C 53.68033981323242 53.415645599365234 64.8285903930664
H 53.318058013916016 54.27301788330078 64.26327514648438
C 53.53704071044922 53.63051223754883 66.26155090332031
C 52.53517150878906 52.99445343017578 66.8853759765625
C 51.717403411865234 51.87091827392578 66.33692169189453
H 51.77873992919922 51.92440414428711 65.24795532226562
H 52.14006042480469 50.94171142578125 66.7247314453125
H 50.6684455871582 51.955501556396484 66.62845611572266
C 52.208953857421875 53.307682037353516 68.38689422607422
H 52.63928985595703 52.44403839111328 68.89816284179688
H 51.118648529052734 53.319576263427734 68.4465103149414
C 52.94620895385742 54.59830856323242 68.9148941040039
H 52.93840408325195 54.46083068847656 69.99817657470703
H 52.38579559326172 55.52055740356445 68.74799346923828
C 54.35322952270508 54.7454719543457 68.36747741699219
H 54.783424377441406 55.653587341308594 68.79493713378906
H 54.95872497558594 53.93115997314453 68.7708969116211
C 54.40817642211914 54.722869873046875 66.89090728759766
C 54.20847702026367 56.085636138916016 66.23799133300781
H 54.332088470458984 56.0921630859375 65.15303039550781
H 53.192317962646484 56.41218185424805 66.46875
H 54.81661605834961 56.86216735839844 66.7066421508789
C 55.835723876953125 54.50048828125 66.5438461303711
H 55.84546661376953 54.47279739379883 65.45223999023438
H 56.58910369873047 55.18898010253906 66.93225860595703
H 56.05845642089844 53.49675750732422 66.91178131103516
