207
Triad, Carotenoid-Porphyrin-C60
C 52.58819580078125 57.46573257446289 41.622493743896484
C 48.508705139160156 52.66292953491211 42.884456634521484
C 48.99311828613281 53.67710494995117 41.02790069580078
C 50.670013427734375 55.0632438659668 39.926029205322266
C 49.590614318847656 52.30796813964844 45.0185661315918
C 48.53302001953125 52.79587173461914 44.28676223754883
C 50.6419677734375 51.45315170288086 42.98929977416992
C 51.14441680908203 52.75136184692383 40.584495544433594
C 54.070716857910156 55.8206672668457 41.75168991088867
C 50.64995574951172 51.619388580322266 44.433570861816406
C 52.36760711669922 56.58646774291992 40.57979965209961
C 51.58418273925781 54.745059967041016 46.68998718261719
C 49.8961181640625 53.191158294677734 46.049739837646484
C 53.34501647949219 56.0713996887207 45.651065826416016
C 54.51154327392578 54.880802154541016 43.93865966796875
C 54.13329315185547 56.08713150024414 44.50123596191406
C 52.249298095703125 52.80526351928711 45.77494812011719
C 51.993621826171875 51.58863067626953 42.62419509887695
C 52.20720672607422 52.28324890136719 41.33881759643555
C 54.06542205810547 53.46592330932617 42.267276763916016
C 48.03368377685547 57.2404670715332 43.09825134277344
C 47.96118927001953 56.410831451416016 44.3696403503418
C 48.03074645996094 56.15217208862305 42.03929901123047
C 47.67900085449219 54.9025764465332 42.60197830200195
C 52.60752868652344 57.69670486450195 44.286556243896484
C 48.939186096191406 56.60990524291992 45.3909797668457
C 51.05156707763672 56.3812370300293 40.25571823120117
C 50.676490783691406 55.78850173950195 46.57352066040039
C 48.914512634277344 54.25542068481445 45.92749786376953
C 52.42524719238281 57.11856460571289 45.50651931762695
C 48.95453643798828 56.100154876708984 40.990562438964844
C 53.35162353515625 53.67256546020508 45.69225311279297
C 54.15625762939453 53.66572570800781 44.51226043701172
C 53.230430603027344 53.18772506713867 41.18120574951172
C 52.79015350341797 51.85718536376953 43.684425354003906
C 49.20854949951172 58.30434799194336 42.98136901855469
C 50.20616912841797 58.25617599487305 44.08245086669922
C 50.222862243652344 58.0347785949707 41.87104797363281
C 51.50818634033203 58.28116989135742 43.602413177490234
C 54.534690856933594 54.75959396362305 42.560813903808594
C 47.722412109375 55.09110641479492 43.985721588134766
C 49.990020751953125 57.0327033996582 40.90959930419922
C 51.496795654296875 58.134517669677734 42.275691986083984
C 49.41143798828125 54.84261703491211 40.43848419189453
C 53.707984924316406 57.137874603271484 43.71791076660156
C 50.015167236328125 57.51217269897461 45.268470764160156
C 49.36870574951172 55.553653717041016 46.21845626831055
C 48.146697998046875 53.7064094543457 42.10345458984375
C 48.080841064453125 54.01327896118164 44.845645904541016
C 53.881553649902344 52.75141143798828 43.4924201965332
C 51.11421203613281 56.95164108276367 45.95534133911133
C 53.63819885253906 56.994937896728516 42.334774017333984
C 49.55387878417969 51.96449661254883 42.233154296875
C 49.828453063964844 52.57847213745117 40.98642349243164
C 51.560768127441406 53.99799728393555 40.01900100708008
C 53.27073669433594 55.510684967041016 40.63444519042969
C 51.18902587890625 53.44477844238281 46.43824005126953
C 52.90454864501953 54.897647857666016 46.23660659790039
C 52.875816345214844 54.22005081176758 40.385433197021484
C 51.94444274902344 51.92275619506836 44.76503372192383
C 46.798561096191406 58.1550178527832 43.008018493652344
N 47.108299255371094 59.35995864868164 42.77277374267578
C 48.53028106689453 59.666751861572266 42.78350067138672
H 48.836639404296875 60.402095794677734 43.53187561035156
H 48.75109100341797 60.12789535522461 41.81745910644531
C 42.68818664550781 57.06156539916992 43.868858337402344
C 43.403350830078125 56.27067184448242 42.96687698364258
H 42.91246795654297 55.45834732055664 42.43703079223633
C 44.77296447753906 56.57632064819336 42.71186828613281
H 45.203369140625 56.049808502197266 41.863868713378906
C 45.394691467285156 57.65031051635742 43.33612823486328
C 43.3128662109375 58.1234245300293 44.46868896484375
H 42.81083679199219 58.73653030395508 45.2127571105957
C 44.640625 58.5057487487793 44.19169616699219
H 44.974029541015625 59.474971771240234 44.55366134643555
C 41.331260681152344 56.740230560302734 44.24824523925781
C 40.874046325683594 55.39142990112305 43.88714599609375
C 40.213233947753906 55.00522994995117 42.740234375
H 40.02255630493164 55.754573822021484 41.979087829589844
C 39.68500900268555 53.69572448730469 42.90715789794922
H 39.153079986572266 53.211273193359375 42.095008850097656
C 40.07869338989258 53.279232025146484 44.09821319580078
N 40.86328887939453 54.26210403442383 44.665626525878906
H 41.20118713378906 54.22164535522461 45.61762619018555
C 39.539546966552734 52.15232467651367 44.82804870605469
H 38.86875915527344 51.54397201538086 44.22317123413086
C 39.43142318725586 51.97874069213867 46.18800354003906
C 38.87922668457031 50.805458068847656 46.75592803955078
H 38.55500411987305 49.92205047607422 46.21583557128906
C 38.92354965209961 51.056819915771484 48.10026168823242
H 38.72639083862305 50.38163757324219 48.9263916015625
C 39.493343353271484 52.38179016113281 48.288761138916016
N 39.78971862792969 52.928287506103516 47.099151611328125
C 39.78623962402344 53.131778717041016 49.4798583984375
C 39.43428039550781 54.44601821899414 49.65718078613281
C 38.652828216552734 55.16196060180664 50.68079376220703
H 38.40010070800781 54.67172622680664 51.61515426635742
C 38.39960479736328 56.44266128540039 50.280799865722656
H 37.8922004699707 57.17923355102539 50.894989013671875
C 38.98249816894531 56.6765022277832 48.981224060058594
N 39.601627349853516 55.49382400512695 48.786277770996094
H 40.06137466430664 55.18442916870117 47.94068145751953
C 38.92525100708008 57.826480865478516 48.22115707397461
H 38.423927307128906 58.689517974853516 48.65677261352539
C 39.47580337524414 58.014347076416016 46.87869644165039
C 39.63395309448242 59.141048431396484 46.01149368286133
H 39.02492141723633 60.030033111572266 46.138004302978516
C 40.31443786621094 58.70326614379883 44.90021514892578
H 40.51165771484375 59.1230583190918 43.91934585571289
C 40.65982437133789 57.47849655151367 45.15179443359375
N 40.130149841308594 57.006465911865234 46.2772331237793
C 41.82262420654297 50.952239990234375 52.62562942504883
C 41.33214569091797 52.202789306640625 52.83659362792969
H 41.38311004638672 52.67902755737305 53.81238555908203
C 40.88896179199219 52.98642349243164 51.7621955871582
H 40.60401153564453 54.0181999206543 51.951416015625
C 40.57310104370117 52.39546585083008 50.52356719970703
C 41.71861267089844 50.428802490234375 51.335304260253906
H 42.100616455078125 49.431331634521484 51.13358688354492
C 41.088653564453125 51.144866943359375 50.31743240356445
H 41.05320739746094 50.648162841796875 49.35120391845703
N 42.156028747558594 50.18446350097656 53.74988555908203
H 42.898826599121094 49.5294075012207 53.55692672729492
C 41.451820373535156 50.16663360595703 54.98319625854492
O 40.4595832824707 50.83839797973633 55.193275451660156
C 41.92912292480469 49.216041564941406 56.01189422607422
C 43.161399841308594 48.59406280517578 55.92897033691406
H 43.89849853515625 48.939056396484375 55.20839309692383
C 43.567649841308594 47.704833984375 56.840999603271484
C 42.831932067871094 47.39854049682617 57.964542388916016
H 43.33515167236328 46.90489196777344 58.7919807434082
C 41.5498046875 48.048309326171875 58.11930847167969
H 41.01512145996094 48.011253356933594 59.06499099731445
C 41.12902069091797 48.88881301879883 57.08168411254883
H 40.214996337890625 49.466983795166016 57.190494537353516
C 44.934532165527344 47.192691802978516 56.61275100708008
H 45.449378967285156 47.477840423583984 55.69648361206055
C 45.654541015625 46.27305603027344 57.36087417602539
H 45.310585021972656 45.93528366088867 58.33736038208008
C 46.87361145019531 45.601829528808594 57.03067398071289
C 47.86573028564453 46.35403823852539 56.21028137207031
H 48.144775390625 45.75185775756836 55.343116760253906
H 48.797821044921875 46.50560760498047 56.758628845214844
H 47.70793914794922 47.422367095947266 56.048309326171875
C 47.083290100097656 44.320072174072266 57.500980377197266
H 46.340614318847656 43.908565521240234 58.182899475097656
C 48.27721405029297 43.50867462158203 57.197975158691406
H 48.84490966796875 43.73300552368164 56.2961311340332
C 48.45527648925781 42.209022521972656 57.60161209106445
H 47.952537536621094 41.85788345336914 58.50154495239258
C 49.34532165527344 41.21980285644531 57.0792350769043
C 49.18309783935547 39.86939239501953 57.683589935302734
H 49.92915344238281 39.71015548706055 58.464942932128906
H 48.24224090576172 39.6672477722168 58.19972229003906
H 49.44813537597656 39.207435607910156 56.85652542114258
C 50.31523132324219 41.44900894165039 56.224178314208984
H 50.43135070800781 42.49519729614258 55.945037841796875
C 51.25743865966797 40.50825881958008 55.68022537231445
H 51.390159606933594 39.53485870361328 56.15012741088867
C 52.00028991699219 40.76255416870117 54.56953430175781
H 51.941619873046875 41.76435089111328 54.1465950012207
C 53.047264099121094 39.853824615478516 54.1201171875
H 52.8626708984375 38.80804443359375 54.36134719848633
C 54.13609313964844 40.17803192138672 53.46152114868164
C 54.40855407714844 41.61946105957031 53.170806884765625
H 55.27307891845703 41.76930618286133 52.52071762084961
H 53.5479736328125 42.11371612548828 52.71519088745117
H 54.51493835449219 42.14251708984375 54.12346267700195
C 55.14176940917969 39.24537658691406 52.86484146118164
H 56.098480224609375 39.721710205078125 52.65568542480469
C 54.981346130371094 37.916748046875 52.64352798461914
H 54.05217742919922 37.462284088134766 52.98415756225586
C 56.01374816894531 37.10175323486328 52.13174057006836
H 56.96465301513672 37.56040573120117 51.86466598510742
C 55.96009063720703 35.782325744628906 51.7893180847168
C 54.71519470214844 34.983177185058594 51.866615295410156
H 53.936004638671875 35.71332931518555 51.63813781738281
H 54.772865295410156 34.17024230957031 51.13978958129883
H 54.46385955810547 34.57019805908203 52.845767974853516
C 57.158592224121094 35.147701263427734 51.27370834350586
H 58.051368713378906 35.73154830932617 51.05463409423828
C 57.38048553466797 33.784732818603516 51.29912185668945
H 56.53062438964844 33.166114807128906 51.58369064331055
C 58.627960205078125 33.18966293334961 50.87828063964844
C 59.149871826171875 33.50020217895508 49.60112380981445
C 58.63124084472656 34.35283660888672 48.51650619506836
H 57.548675537109375 34.49519729614258 48.50092315673828
H 59.07103729248047 35.3495979309082 48.590797424316406
H 59.01618957519531 33.924774169921875 47.588584899902344
C 60.499267578125 32.97016525268555 49.2359619140625
H 61.10368347167969 33.85084533691406 49.463008880615234
H 60.71033477783203 32.82148742675781 48.174922943115234
C 60.98860168457031 31.758209228515625 50.017032623291016
H 62.037261962890625 31.52342987060547 49.82297897338867
H 60.45471954345703 30.851261138916016 49.72569274902344
C 60.812469482421875 32.02799606323242 51.486324310302734
H 61.36528015136719 31.290786743164062 52.07231140136719
H 61.458526611328125 32.89609909057617 51.63286209106445
C 59.34979248046875 32.208980560302734 51.875614166259766
C 58.684593200683594 30.8009033203125 51.865509033203125
H 58.71446990966797 30.356006622314453 50.86869812011719
H 59.25139617919922 30.15454864501953 52.53887939453125
H 57.682472229003906 30.892292022705078 52.28960418701172
C 59.22908020019531 32.760406494140625 53.2753791809082
H 59.616233825683594 33.78143310546875 53.284339904785156
H 58.17719268798828 32.777366638183594 53.568145751953125
H 59.769630432128906 32.22282409667969 54.05722427368164
