207
Triad, Carotenoid-Porphyrin-C60
C 65.94395446777344 47.288177490234375 47.06394577026367
C 59.67405319213867 48.322532653808594 47.83466720581055
C 60.67947006225586 46.475563049316406 47.17836380004883
C 62.8560676574707 45.57142639160156 47.306602478027344
C 60.098140716552734 50.460269927978516 48.9407844543457
C 59.70460891723633 49.740234375 47.81328201293945
C 60.34004592895508 48.26021194458008 50.109962463378906
C 61.634151458740234 45.87999725341797 49.382408142089844
C 65.89729309082031 47.233482360839844 49.334747314453125
C 60.35490036010742 49.67420196533203 50.10104751586914
C 65.14353942871094 46.25766372680664 47.39378356933594
C 63.16524124145508 52.19047164916992 48.762569427490234
C 60.92189407348633 51.546630859375 48.581748962402344
C 65.40467834472656 51.1349983215332 48.871337890625
C 65.4588623046875 49.343692779541016 50.41665267944336
C 66.04886627197266 50.00322723388672 49.38344955444336
C 62.30428695678711 51.10646057128906 50.47350311279297
C 61.37807083129883 47.774593353271484 50.90910339355469
C 62.0777702331543 46.62495803833008 50.50940704345703
C 64.23497772216797 47.603187561035156 51.11311340332031
C 62.57655715942383 48.90763473510742 44.222835540771484
C 61.93062210083008 50.074989318847656 44.92721939086914
C 61.74173355102539 47.7465705871582 44.911800384521484
C 60.6845588684082 48.3266487121582 45.65883255004883
C 66.13636779785156 50.036705017089844 47.09154510498047
C 62.63869857788086 51.20372772216797 45.46984100341797
C 64.0511703491211 45.89235305786133 46.686458587646484
C 63.29716110229492 52.15127944946289 47.4202766418457
C 61.00642776489258 51.507232666015625 47.252586364746094
C 65.53760528564453 51.237117767333984 47.48969650268555
C 62.341678619384766 46.58019256591797 45.40737533569336
C 63.68523025512695 51.010414123535156 50.602684020996094
C 64.31608581542969 49.84114074707031 51.09832000732422
C 63.47372817993164 46.549171447753906 50.56803894042969
C 62.1558952331543 48.8482551574707 51.37943649291992
C 64.11039733886719 48.85279846191406 44.285362243652344
C 64.76396942138672 49.94538879394531 45.132232666015625
C 64.5967788696289 47.6080322265625 45.01743698120117
C 65.74027252197266 49.37694549560547 45.94865417480469
C 65.40284729003906 47.957523345947266 50.43584060668945
C 60.812679290771484 49.657501220703125 45.641334533691406
C 63.7548713684082 46.570945739746094 45.502166748046875
C 65.59394073486328 48.01871871948242 45.920223236083984
C 61.839168548583984 45.99894714355469 46.53240203857422
C 66.46022033691406 49.33045959472656 48.2413215637207
C 64.05523681640625 51.08137893676758 45.571876525878906
C 62.18754959106445 51.857479095458984 46.59435272216797
C 60.09213638305664 47.65143585205078 46.7193489074707
C 60.337711334228516 50.40085983276367 46.73176574707031
C 63.537227630615234 48.774654388427734 51.44234848022461
C 64.42996215820312 51.695167541503906 46.728248596191406
C 66.42913055419922 47.93799591064453 48.21196746826172
C 59.99436569213867 47.6016960144043 48.961238861083984
C 60.60738754272461 46.41300582885742 48.609291076660156
C 62.7921028137207 45.488311767578125 48.69080352783203
C 65.08152770996094 46.24470520019531 48.812828063964844
C 61.99081039428711 51.87615966796875 49.378929138183594
C 64.24536895751953 51.672760009765625 49.483970642089844
C 63.86759567260742 45.850040435791016 49.47858810424805
C 61.5293083190918 49.98560333251953 50.83533477783203
C 62.295230865478516 48.821998596191406 42.749351501464844
N 63.30735397338867 48.84113693237305 41.99327087402344
C 64.51725006103516 48.988792419433594 42.83460235595703
H 64.93983459472656 49.99288558959961 42.74587631225586
H 65.3245849609375 48.290348052978516 42.60000228881836
C 58.43660354614258 48.564430236816406 40.804656982421875
C 59.08340835571289 47.39616394042969 41.246952056884766
H 58.62370681762695 46.411354064941406 41.22702407836914
C 60.4080924987793 47.47265625 41.851783752441406
H 60.90140151977539 46.56939697265625 42.201541900634766
C 60.962703704833984 48.70298385620117 42.143619537353516
C 59.053165435791016 49.79610824584961 41.116661071777344
H 58.55683517456055 50.711673736572266 40.80524444580078
C 60.2771110534668 49.849754333496094 41.78559112548828
H 60.66293716430664 50.7940673828125 42.16105651855469
C 57.08114242553711 48.596351623535156 40.14772033691406
C 56.42970657348633 47.26616287231445 40.154457092285156
C 56.85419845581055 46.05355453491211 39.6314582824707
H 57.77528762817383 45.885711669921875 39.08314895629883
C 55.742610931396484 45.15269088745117 39.83184814453125
H 55.6812629699707 44.0804328918457 39.67782211303711
C 54.77695083618164 45.77391052246094 40.459625244140625
N 55.10322189331055 47.09135055541992 40.56084442138672
H 54.52156448364258 47.83863830566406 40.91490173339844
C 53.510738372802734 45.242462158203125 40.81352615356445
H 53.37680435180664 44.19541549682617 40.545799255371094
C 52.46065139770508 45.88814926147461 41.38903045654297
C 51.27885055541992 45.20610809326172 41.81399917602539
H 50.99197006225586 44.17683792114258 41.625511169433594
C 50.578250885009766 46.14647674560547 42.56793212890625
H 49.70431900024414 46.018245697021484 43.198020935058594
C 51.35818099975586 47.35621643066406 42.5436897277832
N 52.49931716918945 47.1832275390625 41.888404846191406
C 50.99333572387695 48.69391632080078 43.07210159301758
C 51.26114273071289 49.84264373779297 42.368656158447266
C 50.3685417175293 50.958621978759766 41.931636810302734
H 49.3127326965332 51.022491455078125 42.17331314086914
C 51.178707122802734 51.85626220703125 41.238040924072266
H 50.88332748413086 52.65776443481445 40.56903076171875
C 52.53010177612305 51.377777099609375 41.15111541748047
N 52.527034759521484 50.273033142089844 41.99470901489258
H 53.32231521606445 49.68891143798828 42.21482849121094
C 53.54216384887695 51.83206558227539 40.41441345214844
H 53.23934555053711 52.72869110107422 39.875633239746094
C 54.7867317199707 51.230350494384766 40.08120346069336
C 55.708919525146484 51.63352584838867 39.10285186767578
H 55.61704635620117 52.53947067260742 38.51289367675781
C 56.76191329956055 50.705379486083984 39.02174758911133
H 57.56410598754883 50.70622634887695 38.29119110107422
C 56.47861099243164 49.779815673828125 40.067325592041016
N 55.25747299194336 50.09796905517578 40.670143127441406
C 49.50699996948242 49.152408599853516 47.07528305053711
C 49.6954460144043 50.28289031982422 46.30622482299805
H 49.4994010925293 51.26483917236328 46.72920227050781
C 50.25246047973633 50.124874114990234 45.030555725097656
H 50.588985443115234 50.9583625793457 44.4193115234375
C 50.50608444213867 48.85476303100586 44.463253021240234
C 49.8857536315918 47.90923309326172 46.65395736694336
H 49.76445388793945 47.04425811767578 47.30101013183594
C 50.34779739379883 47.73130416870117 45.34315872192383
H 50.718135833740234 46.75447463989258 45.04277801513672
N 49.02884292602539 49.270809173583984 48.39798355102539
H 49.53117752075195 49.87966537475586 49.02650833129883
C 47.911312103271484 48.6850471496582 48.85687255859375
O 47.130741119384766 48.13743209838867 48.09572982788086
C 47.6859245300293 48.6888427734375 50.34922409057617
C 46.328548431396484 48.53095245361328 50.78007125854492
H 45.56173324584961 48.349552154541016 50.031307220458984
C 46.01192855834961 48.572757720947266 52.09557342529297
C 47.015621185302734 48.87879180908203 53.04670333862305
H 46.75644302368164 48.92163848876953 54.10148620605469
C 48.34232711791992 48.94514846801758 52.68473434448242
H 49.107173919677734 49.064186096191406 53.44789123535156
C 48.65438461303711 48.94832229614258 51.29588317871094
H 49.682987213134766 49.07841110229492 50.96932601928711
C 44.63218688964844 48.28810501098633 52.42624282836914
H 44.09280014038086 47.98897171020508 51.528743743896484
C 44.06940460205078 48.333160400390625 53.66033172607422
H 44.73173522949219 48.53271484375 54.50141906738281
C 42.652042388916016 48.27708435058594 53.88650894165039
C 42.08795166015625 48.300235748291016 55.311649322509766
H 42.84435272216797 48.253353118896484 56.09785461425781
H 41.437278747558594 47.44252014160156 55.494441986083984
H 41.499271392822266 49.16731262207031 55.618412017822266
C 41.762306213378906 48.21426010131836 52.88252258300781
H 42.143272399902344 48.431888580322266 51.88581466674805
C 40.334625244140625 48.26901626586914 52.89463424682617
H 39.9133415222168 47.982452392578125 53.857093811035156
C 39.56979751586914 48.777103424072266 51.94932174682617
H 40.07652282714844 49.07501220703125 51.032588958740234
C 38.0915641784668 48.727108001708984 51.96647262573242
C 37.4515495300293 49.22264862060547 50.7255859375
H 37.31706237792969 50.302085876464844 50.821407318115234
H 37.99146270751953 49.118709564208984 49.782100677490234
H 36.47763442993164 48.74494934082031 50.60007095336914
C 37.363338470458984 48.69820785522461 53.11504364013672
H 37.863094329833984 48.567283630371094 54.073699951171875
C 35.91437530517578 48.73385238647461 53.256317138671875
H 35.27528381347656 48.631011962890625 52.38058853149414
C 35.31066131591797 48.902137756347656 54.40680694580078
H 35.90585708618164 49.16203308105469 55.28094482421875
C 33.895591735839844 48.92900085449219 54.4970703125
H 33.41162872314453 48.76816177368164 53.53486633300781
C 33.088523864746094 49.06008529663086 55.512351989746094
C 33.585872650146484 49.274391174316406 56.922088623046875
H 33.46284866333008 50.306396484375 57.257179260253906
H 33.11306381225586 48.528072357177734 57.563907623291016
H 34.64885711669922 49.05597686767578 57.0438232421875
C 31.609403610229492 49.03458023071289 55.38105773925781
H 31.223798751831055 49.242530822753906 54.38406753540039
C 30.782350540161133 48.73417663574219 56.36705017089844
H 31.11509895324707 48.58250427246094 57.392822265625
C 29.416196823120117 48.590328216552734 56.017024993896484
H 29.214841842651367 48.30827713012695 54.98463821411133
C 28.3674373626709 48.697757720947266 56.8891487121582
C 28.64433479309082 48.98227310180664 58.27289962768555
H 29.049283981323242 48.0428466796875 58.65493392944336
H 29.321455001831055 49.82562255859375 58.423667907714844
H 27.71938133239746 49.254234313964844 58.785701751708984
C 26.897729873657227 48.613548278808594 56.60800552368164
H 26.1640567779541 48.75236129760742 57.40071105957031
C 26.40418815612793 48.372318267822266 55.37970733642578
H 27.0255184173584 48.3475456237793 54.485694885253906
C 24.963808059692383 48.39097213745117 55.07556915283203
C 24.168561935424805 49.409061431884766 55.459922790527344
C 24.54832649230957 50.65188980102539 56.24053955078125
H 24.274702072143555 51.56285095214844 55.70413589477539
H 24.00583839416504 50.590206146240234 57.186248779296875
H 25.618505477905273 50.754703521728516 56.4318733215332
C 22.646215438842773 49.492008209228516 55.22252655029297
H 22.244035720825195 50.50204849243164 55.32514572143555
H 22.301076889038086 48.94346618652344 56.10141372680664
C 22.247594833374023 48.75932693481445 53.922000885009766
H 22.61601448059082 49.387760162353516 53.108482360839844
H 21.157438278198242 48.69791793823242 53.90596389770508
C 22.89240837097168 47.358543395996094 54.0310173034668
H 22.564470291137695 46.86222839355469 54.94676208496094
H 22.52652931213379 46.6689338684082 53.26744842529297
C 24.415929794311523 47.2654914855957 54.12677001953125
C 24.845186233520508 45.89061737060547 54.53984451293945
H 25.93338966369629 45.827335357666016 54.47441482543945
H 24.671937942504883 45.78262710571289 55.61259078979492
H 24.40614128112793 45.10310745239258 53.92378234863281
C 24.933279037475586 47.404052734375 52.65934753417969
H 25.952531814575195 47.042694091796875 52.50767135620117
H 24.294198989868164 46.806114196777344 52.00626754760742
H 25.040372848510742 48.44562911987305 52.349334716796875
