207
Triad, Carotenoid-Porphyrin-C60
C 30.49164581298828 51.65499496459961 58.09053039550781
C 33.715885162353516 52.69734573364258 52.766231536865234
C 31.95511245727539 51.30174255371094 52.98936080932617
C 30.240306854248047 51.008663177490234 54.58219909667969
C 34.80745315551758 54.591888427734375 53.639739990234375
C 34.86765670776367 53.26689910888672 53.33773422241211
C 32.48067092895508 54.75733184814453 52.838287353515625
C 30.393783569335938 53.042701721191406 53.285709381103516
C 29.650341033935547 53.63349914550781 57.53215408325195
C 33.61313247680664 55.359336853027344 53.40754318237305
C 29.748302459716797 51.49492263793945 56.893760681152344
C 35.01864242553711 55.232322692871094 57.13908767700195
C 35.49148941040039 54.77985382080078 54.83229064941406
C 33.18252944946289 55.016441345214844 58.77147674560547
C 31.083194732666016 55.582305908203125 57.72489547729492
C 31.776676177978516 54.93344497680664 58.791595458984375
C 33.864253997802734 56.361812591552734 55.569671630859375
C 31.33823013305664 55.21998977661133 53.45389175415039
C 30.247589111328125 54.37834167480469 53.67692184448242
C 30.042816162109375 55.339111328125 55.842960357666016
C 34.361637115478516 49.663856506347656 56.13960266113281
C 35.4294319152832 50.79722595214844 55.88291931152344
C 33.416744232177734 49.91869354248047 54.97694396972656
C 34.10110855102539 50.73893356323242 54.057186126708984
C 32.613014221191406 52.88108825683594 59.24774932861328
C 35.61720657348633 51.76133346557617 56.87818145751953
C 30.227916717529297 50.71461486816406 55.88611602783203
C 35.48427963256836 53.94248580932617 57.50053787231445
C 36.024105072021484 53.522891998291016 55.214115142822266
C 33.70000076293945 53.76351547241211 59.07211685180664
C 32.02951431274414 49.78067398071289 54.90762710571289
C 33.15657424926758 56.40351486206055 56.79225158691406
C 31.76871109008789 56.36066818237305 56.77030944824219
C 29.518295288085938 54.41971206665039 54.87685012817383
C 31.775978088378906 56.18613052368164 54.37889862060547
C 33.56666946411133 49.76517868041992 57.484619140625
C 33.89188766479492 50.96160125732422 58.369625091552734
C 32.078521728515625 50.010372161865234 57.35898971557617
C 32.70943832397461 51.52002716064453 58.87705612182617
C 30.005840301513672 54.95100402832031 57.18882369995117
C 35.295169830322266 51.245018005371094 54.59547424316406
C 31.39315414428711 49.96934127807617 56.13946533203125
C 31.620845794677734 50.927345275878906 58.310508728027344
C 31.340843200683594 50.50581741333008 53.95918655395508
C 31.45140838623047 53.6098747253418 59.067325592041016
C 34.8776969909668 51.88405227661133 58.0322380065918
C 35.96286392211914 53.061973571777344 56.536624908447266
C 33.33443069458008 51.40565490722656 53.06814193725586
C 35.671695709228516 52.61116409301758 54.265342712402344
C 31.073196411132812 56.23551559448242 55.60091781616211
C 34.8358039855957 53.20844268798828 58.455020904541016
C 30.393516540527344 52.949256896972656 58.50159454345703
C 32.55554962158203 53.41766357421875 52.425601959228516
C 31.484161376953125 52.53936004638672 52.60858154296875
C 29.71389389038086 52.280128479003906 54.23765182495117
C 29.257537841796875 52.72568893432617 56.573387145996094
C 35.04435348510742 55.654388427734375 55.805091857910156
C 33.88417434692383 55.75918960571289 57.778282165527344
C 29.230865478515625 53.142208099365234 55.20663833618164
C 33.11857223510742 56.15738296508789 54.39698791503906
C 35.0029411315918 48.349708557128906 56.18284606933594
N 34.75484085083008 47.70000457763672 57.222225189208984
C 33.84799575805664 48.395572662353516 58.104557037353516
H 34.23268508911133 48.341590881347656 59.126197814941406
H 32.864009857177734 47.919803619384766 58.09649658203125
C 38.44600296020508 47.23202133178711 53.72698974609375
C 37.33895492553711 47.86086654663086 53.1867561340332
H 37.37837600708008 48.133060455322266 52.135128021240234
C 36.18533706665039 48.15550231933594 53.92142868041992
H 35.3705940246582 48.65907669067383 53.40744400024414
C 36.0805778503418 47.827152252197266 55.256473541259766
C 38.38668441772461 46.90143966674805 55.09284210205078
H 39.302730560302734 46.52128219604492 55.53771209716797
C 37.23470687866211 47.171775817871094 55.830589294433594
H 37.26005172729492 46.715354919433594 56.81679916381836
C 39.60988235473633 46.74735641479492 52.83245086669922
C 39.66739273071289 47.26485824584961 51.47675704956055
C 38.94868850708008 47.00999450683594 50.316497802734375
H 38.12944412231445 46.31246566772461 50.17683029174805
C 39.590267181396484 47.74134826660156 49.2960205078125
H 39.299747467041016 47.73793411254883 48.25064468383789
C 40.65048599243164 48.396339416503906 49.75434494018555
N 40.714237213134766 48.1733512878418 51.09009552001953
H 41.4510383605957 48.49314880371094 51.70407485961914
C 41.687740325927734 49.04661178588867 49.051692962646484
H 41.470821380615234 49.658958435058594 48.177677154541016
C 43.04804611206055 49.00883865356445 49.29655075073242
C 43.95759963989258 49.96746826171875 48.95466613769531
H 43.76668930053711 50.9497184753418 48.53519058227539
C 45.174495697021484 49.459529876708984 49.28517150878906
H 46.12601089477539 49.957862854003906 49.1318359375
C 44.96992874145508 48.18140411376953 49.84907150268555
N 43.68485641479492 47.917625427246094 49.8898811340332
C 45.96625900268555 47.222503662109375 50.304359436035156
C 45.939762115478516 46.714630126953125 51.560707092285156
C 46.97185134887695 46.14347457885742 52.34058380126953
H 48.01914596557617 46.244529724121094 52.075645446777344
C 46.339900970458984 45.40511703491211 53.38869094848633
H 46.90961837768555 44.996578216552734 54.2167854309082
C 44.936893463134766 45.560691833496094 53.307491302490234
N 44.82638931274414 46.315834045410156 52.18169021606445
H 43.900821685791016 46.454139709472656 51.79917907714844
C 43.92512130737305 44.9975471496582 53.97843933105469
H 44.230587005615234 44.270835876464844 54.729774475097656
C 42.51040267944336 45.12592315673828 53.833621978759766
C 41.527339935302734 44.4036979675293 54.60558319091797
H 41.80893325805664 43.52296829223633 55.17325210571289
C 40.31355667114258 44.83955001831055 54.17621612548828
H 39.35197830200195 44.393768310546875 54.40830993652344
C 40.59418869018555 45.95092010498047 53.37200164794922
N 41.89210891723633 46.102779388427734 53.106910705566406
C 48.654720306396484 45.38743209838867 47.38437271118164
C 48.38386154174805 44.756752014160156 48.585792541503906
H 49.00260543823242 43.87931442260742 48.755584716796875
C 47.509517669677734 45.35640335083008 49.48435974121094
H 47.345516204833984 44.817413330078125 50.413963317871094
C 46.86101150512695 46.609375 49.21857452392578
C 47.933109283447266 46.51361083984375 46.9996223449707
H 48.11823654174805 46.940025329589844 46.01703643798828
C 47.03073501586914 47.1327018737793 47.91608810424805
H 46.61893081665039 48.09748458862305 47.631168365478516
N 49.58291244506836 44.80826950073242 46.4376220703125
H 49.098445892333984 44.241790771484375 45.757564544677734
C 50.94405746459961 44.787296295166016 46.53809356689453
O 51.52583694458008 45.27680206298828 47.49919891357422
C 51.659427642822266 43.97882843017578 45.5103645324707
C 53.017276763916016 43.85649871826172 45.57916259765625
H 53.54756546020508 44.47325897216797 46.30024719238281
C 53.76156234741211 43.12200164794922 44.61284637451172
C 53.08102798461914 42.639625549316406 43.496681213378906
H 53.652950286865234 41.971282958984375 42.85809326171875
C 51.7110481262207 42.85845184326172 43.3338737487793
H 51.11445236206055 42.44348907470703 42.5255126953125
C 51.04231643676758 43.46957015991211 44.373043060302734
H 49.9599723815918 43.55832290649414 44.32593536376953
C 55.26224136352539 43.01211929321289 44.64924240112305
H 55.70095443725586 43.62288284301758 45.43690490722656
C 56.05055618286133 42.4178581237793 43.73400115966797
H 55.66996383666992 41.807613372802734 42.91627883911133
C 57.460079193115234 42.611106872558594 43.71165084838867
C 58.1693229675293 42.814674377441406 44.9937744140625
H 59.1713981628418 42.40481948852539 44.85121536254883
H 57.631710052490234 42.26060485839844 45.76607131958008
H 58.13706588745117 43.880226135253906 45.230464935302734
C 58.07278823852539 42.893550872802734 42.523868560791016
H 57.494686126708984 42.718605041503906 41.617713928222656
C 59.40602493286133 43.395423889160156 42.38177490234375
H 59.754398345947266 44.079734802246094 43.153961181640625
C 60.14901351928711 43.118324279785156 41.315025329589844
H 59.74123001098633 42.49776840209961 40.5184440612793
C 61.34622573852539 43.74030303955078 40.84223937988281
C 61.740604400634766 43.612552642822266 39.36689376831055
H 62.68143081665039 43.101898193359375 39.15114212036133
H 60.91750717163086 43.23148727416992 38.75880432128906
H 61.879764556884766 44.623897552490234 38.979244232177734
C 62.12812423706055 44.35549545288086 41.688011169433594
H 61.85208511352539 44.49951934814453 42.73155212402344
C 63.4662971496582 44.964630126953125 41.526519775390625
H 63.79384231567383 45.021240234375 40.4894905090332
C 64.2123794555664 45.66997146606445 42.428218841552734
H 63.75019454956055 45.74258041381836 43.41160202026367
C 65.46607208251953 46.36284255981445 42.15538787841797
H 65.78144073486328 46.33690643310547 41.113372802734375
C 66.32571411132812 47.01484298706055 42.95182418823242
C 66.1473617553711 47.10444641113281 44.42112731933594
H 66.99720001220703 46.54808807373047 44.822017669677734
H 66.2393798828125 48.089752197265625 44.882835388183594
H 65.2302474975586 46.68893814086914 44.84386444091797
C 67.56678771972656 47.64860153198242 42.5879020690918
H 68.09970092773438 48.15325164794922 43.392425537109375
C 68.18354034423828 47.582481384277344 41.37615966796875
H 67.71417999267578 47.03947830200195 40.55715560913086
C 69.30300903320312 48.380313873291016 41.04357147216797
H 69.57379150390625 48.95328903198242 41.92918395996094
C 69.93077087402344 48.449462890625 39.87734603881836
C 69.39924621582031 47.773765563964844 38.691307067871094
H 69.62091064453125 48.27620315551758 37.747440338134766
H 69.87737274169922 46.7988395690918 38.57559585571289
H 68.3080062866211 47.757896423339844 38.72887420654297
C 71.12150573730469 49.38205337524414 39.65125274658203
H 71.50817108154297 49.85661697387695 40.551918029785156
C 71.82841491699219 49.62889099121094 38.5544548034668
H 71.71058654785156 49.0672607421875 37.6289176940918
C 73.04676055908203 50.465797424316406 38.588016510009766
C 74.15166473388672 50.139747619628906 39.32246398925781
C 74.23490142822266 48.96577835083008 40.24049758911133
H 74.49811553955078 49.34672546386719 41.22946548461914
H 73.26775360107422 48.463260650634766 40.308067321777344
H 74.98949432373047 48.208106994628906 40.01917266845703
C 75.39698791503906 50.990028381347656 39.382057189941406
H 76.2992172241211 50.404727935791016 39.571475982666016
H 75.18507385253906 51.61315155029297 40.253421783447266
C 75.5660171508789 51.942501068115234 38.257144927978516
H 75.88512420654297 51.451499938964844 37.33543395996094
H 76.27783203125 52.7275390625 38.52077865600586
C 74.13914489746094 52.61536407470703 37.97182846069336
H 73.70227813720703 53.119773864746094 38.83622741699219
H 74.32713317871094 53.38096618652344 37.2161979675293
C 73.08740997314453 51.62563705444336 37.54599380493164
C 71.77010345458984 52.41989517211914 37.42292785644531
H 71.01402282714844 51.933929443359375 36.802738189697266
H 71.2989273071289 52.55424499511719 38.398841857910156
H 72.0569076538086 53.36240768432617 36.95188903808594
C 73.39459228515625 51.099727630615234 36.131507873535156
H 72.53240966796875 50.55679702758789 35.73865509033203
H 73.57613372802734 51.94365692138672 35.46270751953125
H 74.25582122802734 50.428382873535156 36.125083923339844
