207
Triad, Carotenoid-Porphyrin-C60
C 37.050025939941406 57.731468200683594 34.21671676635742
C 40.67772674560547 52.81298065185547 32.49580383300781
C 38.53294372558594 52.70918655395508 33.219974517822266
C 36.784767150878906 54.321773529052734 33.368080139160156
C 42.28730773925781 54.24781036376953 31.48991584777832
C 41.93640899658203 53.41254425048828 32.54304122924805
C 40.17515563964844 53.784297943115234 30.25922203063965
C 37.59425354003906 53.752037048339844 31.17903709411621
C 36.95599365234375 57.98627853393555 31.991918563842773
C 41.43311309814453 54.40729904174805 30.396623611450195
C 36.402130126953125 56.634368896484375 33.701080322265625
C 42.59748077392578 57.81825256347656 32.211246490478516
C 42.92975616455078 55.38895797729492 31.95160484313965
C 40.682289123535156 59.32514190673828 32.39482879638672
C 38.94166564941406 58.773170471191406 30.90276527404785
C 39.36085510253906 59.3763313293457 32.06986999511719
C 41.917030334472656 56.82319641113281 30.33961296081543
C 39.28492736816406 54.58442306518555 29.620561599731445
C 38.01874542236328 54.58599090576172 30.16545295715332
C 37.95489501953125 57.039207458496094 29.96755027770996
C 40.132164001464844 54.933143615722656 36.53331756591797
C 41.37989044189453 55.052696228027344 35.69809341430664
C 39.456443786621094 53.85698318481445 35.62959289550781
C 40.35295104980469 53.2265739440918 34.78947067260742
C 39.42320251464844 59.150028228759766 34.300880432128906
C 41.91564178466797 56.25722122192383 35.30149459838867
C 36.66900634765625 55.37807846069336 34.25019073486328
C 42.56732940673828 57.660160064697266 33.65220260620117
C 42.96143341064453 55.25166320800781 33.37773132324219
C 40.68878936767578 59.2308235168457 33.841705322265625
C 38.11542510986328 53.99223709106445 35.195457458496094
C 41.252479553222656 57.978050231933594 30.474424362182617
C 39.910438537597656 58.09025573730469 30.109506607055664
C 37.390037536621094 55.8184814453125 30.261945724487305
C 39.97315216064453 55.79508972167969 29.291566848754883
C 39.38249206542969 56.291099548339844 36.7161979675293
C 40.07286834716797 57.52587127685547 36.047794342041016
C 38.04399871826172 56.36158752441406 35.96090316772461
C 39.11768341064453 58.29050827026367 35.3536376953125
C 37.710975646972656 58.11172103881836 30.81052589416504
C 41.49755859375 53.93937301635742 34.80669403076172
C 37.479331970214844 55.23576354980469 35.346805572509766
C 37.92042541503906 57.577064514160156 35.31357192993164
C 37.691070556640625 53.44649887084961 33.99368667602539
C 38.54981231689453 59.29689025878906 33.22986602783203
C 41.32972717285156 57.48930358886719 35.45752716064453
C 42.79460144042969 56.38022994995117 34.19490432739258
C 39.91649627685547 52.608070373535156 33.60744857788086
C 42.36742401123047 54.02011489868164 33.68762969970703
C 39.304039001464844 56.98838424682617 29.524450302124023
C 41.62229919433594 58.37174606323242 34.40886306762695
C 37.393157958984375 58.56734848022461 33.18364334106445
C 39.883827209472656 52.97828674316406 31.376184463500977
C 38.54314422607422 52.885894775390625 31.798593521118164
C 36.68415832519531 54.45328140258789 31.97965431213379
C 36.402870178222656 56.75292205810547 32.28080368041992
C 42.820556640625 56.684051513671875 31.369977951049805
C 41.648963928222656 58.63755798339844 31.587682723999023
C 36.60118865966797 55.67139434814453 31.413843154907227
C 41.259376525878906 55.6744384765625 29.80976676940918
C 40.35369110107422 54.51677322387695 37.95021057128906
N 39.73186492919922 55.17273712158203 38.847293853759766
C 39.1822509765625 56.42125701904297 38.236358642578125
H 39.675140380859375 57.323158264160156 38.60822677612305
H 38.15728759765625 56.57440948486328 38.58370590209961
C 42.47813415527344 50.83046340942383 38.92811965942383
C 43.097625732421875 51.96975326538086 38.30437088012695
H 44.105018615722656 51.86286544799805 37.91028594970703
C 42.42970275878906 53.165592193603516 37.89249801635742
H 42.86466979980469 53.935237884521484 37.26002502441406
C 41.07185363769531 53.32575607299805 38.261573791503906
C 41.170135498046875 51.07782745361328 39.410152435302734
H 40.67253112792969 50.33738327026367 40.03120040893555
C 40.53620147705078 52.31636047363281 39.094810485839844
H 39.611915588378906 52.50682830810547 39.63423538208008
C 43.24272918701172 49.620079040527344 39.22547912597656
C 44.717384338378906 49.49665451049805 38.99472427368164
C 45.51947021484375 49.83704376220703 37.93875503540039
H 45.15582275390625 50.20094299316406 36.98347473144531
C 46.844200134277344 49.67725372314453 38.364532470703125
H 47.70501708984375 49.841312408447266 37.724761962890625
C 46.88482666015625 49.18046951293945 39.60735321044922
N 45.581329345703125 49.060302734375 39.929237365722656
H 45.230430603027344 48.749000549316406 40.8248291015625
C 48.05427551269531 48.87775421142578 40.50498962402344
H 48.93054962158203 49.48025131225586 40.27033615112305
C 47.959228515625 48.523677825927734 41.83577346801758
C 48.78169250488281 49.131317138671875 42.803565979003906
H 49.455810546875 49.97532653808594 42.701419830322266
C 48.33567810058594 48.62104415893555 44.04048156738281
H 48.61345672607422 48.79981231689453 45.073974609375
C 47.484703063964844 47.50440979003906 43.69563293457031
N 47.197044372558594 47.48637008666992 42.32185745239258
C 46.89575958251953 46.513404846191406 44.579917907714844
C 45.645416259765625 45.99199676513672 44.357635498046875
C 45.088966369628906 44.67607498168945 44.67097473144531
H 45.679473876953125 43.930442810058594 45.193050384521484
C 43.8734130859375 44.574913024902344 43.995792388916016
H 43.280426025390625 43.688026428222656 43.79827117919922
C 43.651092529296875 45.76317596435547 43.26539611816406
N 44.745941162109375 46.54966735839844 43.5032958984375
H 44.78485870361328 47.453521728515625 43.05200958251953
C 42.66917419433594 45.97544479370117 42.310951232910156
H 41.975181579589844 45.137413024902344 42.26620864868164
C 42.35594177246094 47.015750885009766 41.36082077026367
C 41.203216552734375 47.05463790893555 40.49271011352539
H 40.51795196533203 46.21710205078125 40.41410446166992
C 41.421775817871094 48.03824996948242 39.5965576171875
H 40.826438903808594 48.19698715209961 38.70347595214844
C 42.584991455078125 48.653507232666016 40.01384735107422
N 43.09349822998047 48.01099395751953 41.05754470825195
C 49.1085205078125 45.02994918823242 47.958473205566406
C 47.775634765625 44.9384880065918 48.08334732055664
H 47.210411071777344 44.524436950683594 48.914405822753906
C 47.04742431640625 45.4598503112793 46.95127487182617
H 45.962867736816406 45.4432373046875 47.022216796875
C 47.692710876464844 45.982234954833984 45.76923370361328
C 49.77183532714844 45.515933990478516 46.79041290283203
H 50.84765625 45.364891052246094 46.75348663330078
C 49.083717346191406 46.07801818847656 45.770774841308594
H 49.51008605957031 46.505455017089844 44.86685562133789
N 49.90629577636719 44.579471588134766 49.07207489013672
H 50.30645751953125 43.658180236816406 48.97626876831055
C 50.39329528808594 45.28651428222656 50.14688491821289
O 50.24409484863281 46.50255584716797 50.23499298095703
C 51.276023864746094 44.44231414794922 51.059974670410156
C 51.620567321777344 44.9344482421875 52.30817413330078
H 51.127113342285156 45.82157897949219 52.69684600830078
C 52.49589538574219 44.26533889770508 53.148155212402344
C 53.20280456542969 43.101165771484375 52.65789031982422
H 53.97764587402344 42.62705993652344 53.25489807128906
C 52.79389953613281 42.53499221801758 51.43327331542969
H 53.256263732910156 41.698822021484375 50.915008544921875
C 51.814781188964844 43.20625686645508 50.68837356567383
H 51.552711486816406 42.836151123046875 49.70048904418945
C 52.66527557373047 44.79129409790039 54.48576354980469
H 52.06629943847656 45.67498779296875 54.700782775878906
C 53.40144348144531 44.21217727661133 55.486785888671875
H 54.132171630859375 43.43647766113281 55.26262664794922
C 53.39697265625 44.48039627075195 56.904457092285156
C 52.332008361816406 45.22392654418945 57.58308410644531
H 51.669654846191406 45.80824661254883 56.94096374511719
H 52.79987335205078 45.99110412597656 58.203575134277344
H 51.69660949707031 44.47541046142578 58.061058044433594
C 54.37126922607422 43.95669174194336 57.68852233886719
H 55.130645751953125 43.4421501159668 57.10157012939453
C 54.48182678222656 44.2067756652832 59.113990783691406
H 53.56488800048828 44.319358825683594 59.690589904785156
C 55.68977355957031 44.134029388427734 59.771766662597656
H 56.523048400878906 43.825462341308594 59.142189025878906
C 56.011322021484375 44.282867431640625 61.193939208984375
C 54.82490539550781 44.44255447387695 62.068885803222656
H 55.199951171875 45.07793426513672 62.873931884765625
H 53.8760986328125 44.76124954223633 61.63224792480469
H 54.62599182128906 43.461692810058594 62.505699157714844
C 57.238426208496094 44.02738952636719 61.71351623535156
H 57.94501495361328 43.83783721923828 60.906837463378906
C 57.62513732910156 43.75471496582031 63.094078063964844
H 56.764549255371094 43.420814514160156 63.671852111816406
C 58.825592041015625 43.8191032409668 63.74108123779297
H 59.69281005859375 44.0784797668457 63.1356201171875
C 59.177284240722656 43.580326080322266 65.16604614257812
H 58.328826904296875 43.16866683959961 65.71063232421875
C 60.307769775390625 43.883087158203125 65.71846771240234
C 61.465362548828125 44.432456970214844 64.95979309082031
H 61.73054504394531 43.88951110839844 64.05020904541016
H 61.124366760253906 45.413700103759766 64.62311553955078
H 62.38804626464844 44.577327728271484 65.52558898925781
C 60.614097595214844 43.690860748291016 67.14177703857422
H 61.528785705566406 44.13826370239258 67.52790069580078
C 59.96717071533203 42.92987060546875 68.06692504882812
H 59.15167236328125 42.312068939208984 67.69381713867188
C 60.45451354980469 42.830291748046875 69.4605484008789
H 61.27477264404297 43.4729118347168 69.7769775390625
C 60.132606506347656 41.936336517333984 70.46553039550781
C 59.13902282714844 40.80998611450195 70.09242248535156
H 59.566200256347656 40.03865051269531 69.44820404052734
H 58.62214660644531 40.23298645019531 70.8620834350586
H 58.357940673828125 41.29735565185547 69.50518798828125
C 60.773223876953125 41.836666107177734 71.75604248046875
H 60.770904541015625 40.83145523071289 72.17493438720703
C 61.478187561035156 42.777565002441406 72.41911315917969
H 61.485145568847656 43.78297424316406 72.00074768066406
C 61.97627258300781 42.686519622802734 73.81366729736328
C 62.965476989746094 41.83454132080078 74.13282775878906
C 63.61424255371094 40.7969970703125 73.25872039794922
H 64.68434143066406 41.00308609008789 73.18900299072266
H 63.478660583496094 39.78428649902344 73.64408111572266
H 63.200233459472656 40.889652252197266 72.25250244140625
C 63.65363311767578 41.86480712890625 75.49897003173828
H 64.71339416503906 42.06243133544922 75.3248291015625
H 63.61140441894531 40.86343002319336 75.9324722290039
C 63.037559509277344 42.79750442504883 76.57640075683594
H 63.876953125 42.93061065673828 77.26209259033203
H 62.224525451660156 42.320892333984375 77.12802124023438
C 62.58781433105469 44.073692321777344 75.86613464355469
H 62.120262145996094 44.77896499633789 76.55638885498047
H 63.42132568359375 44.611839294433594 75.40992736816406
C 61.555633544921875 43.83833694458008 74.78064727783203
C 60.199066162109375 43.74774169921875 75.41197204589844
H 59.478553771972656 43.74239730834961 74.5914306640625
H 60.114707946777344 42.917747497558594 76.11656951904297
H 59.982452392578125 44.63066864013672 76.0169448852539
C 61.40248107910156 45.199317932128906 74.0493392944336
H 60.64673614501953 45.142784118652344 73.26313018798828
H 61.16523742675781 45.9683723449707 74.78739929199219
H 62.36058044433594 45.41246795654297 73.57071685791016
