207
Triad, Carotenoid-Porphyrin-C60
C 52.55650329589844 44.8287239074707 35.0606803894043
C 55.575157165527344 50.04423904418945 37.32625198364258
C 56.50189971923828 47.99258041381836 36.86758804321289
C 55.88493347167969 46.083255767822266 35.49319839477539
C 53.59269714355469 51.42280197143555 36.81983947753906
C 54.398780822753906 50.7319450378418 37.71882629394531
C 55.17804718017578 50.6904182434082 35.06015396118164
C 56.25261688232422 48.18410873413086 34.45960998535156
C 52.58146667480469 46.065006256103516 33.202484130859375
C 54.009307861328125 51.39475631713867 35.43587112426758
C 53.87371826171875 44.96965408325195 34.65979766845703
C 50.24004364013672 50.1358528137207 36.360408782958984
C 52.25507354736328 51.19856643676758 37.22004699707031
C 49.632904052734375 48.15080642700195 35.084747314453125
C 51.127044677734375 47.9614372253418 33.00819778442383
C 50.250526428222656 47.39127731323242 34.042091369628906
C 51.63059997558594 50.962642669677734 34.84031677246094
C 54.90678405761719 50.07028579711914 33.855403900146484
C 55.45201110839844 48.80831527709961 33.524925231933594
C 53.27772521972656 48.18679428100586 32.45896911621094
C 53.46385192871094 46.52580642700195 39.44795227050781
C 52.84068298339844 47.9047737121582 39.390037536621094
C 54.84422302246094 46.7718620300293 38.756370544433594
C 55.06182861328125 48.127620697021484 38.709739685058594
C 50.37505340576172 46.19596481323242 35.892784118652344
C 51.531982421875 48.254276275634766 39.03186798095703
C 54.838523864746094 45.16989517211914 35.62733840942383
C 50.2764892578125 49.366268157958984 37.52812194824219
C 52.237213134765625 50.42189407348633 38.319969177246094
C 49.738555908203125 47.37655258178711 36.202293395996094
C 55.386451721191406 46.04190444946289 37.6806526184082
C 50.876976013183594 50.03275680541992 34.175567626953125
C 51.42584991455078 49.30104446411133 33.143001556396484
C 54.627784729003906 47.89835739135742 32.80280685424805
C 53.58648681640625 50.4127311706543 33.48707580566406
C 52.53620147705078 45.43104934692383 38.768310546875
C 51.23084259033203 46.00271987915039 38.13547134399414
C 53.176307678222656 44.81215286254883 37.4140510559082
C 51.066734313964844 45.505130767822266 36.822208404541016
C 52.28064727783203 47.237735748291016 32.55634689331055
C 53.857421875 48.7840461730957 39.04517364501953
C 54.48094177246094 45.14458084106445 36.98967742919922
C 52.22057342529297 44.76011276245117 36.430728912353516
C 56.213043212890625 46.62437057495117 36.73067855834961
C 50.628379821777344 46.15420913696289 34.556373596191406
C 50.822021484375 47.31058883666992 38.32738494873047
C 51.19562530517578 49.4825553894043 38.5048942565918
C 55.86450958251953 48.77045822143555 37.81949996948242
C 53.53502655029297 50.1102180480957 38.60580825805664
C 52.79351806640625 49.45219802856445 32.84127426147461
C 50.05461883544922 47.97172164916992 37.42042922973633
C 51.78143310546875 45.48662185668945 34.15473556518555
C 55.962669372558594 50.03947067260742 35.9873046875
C 56.581459045410156 48.74995803833008 35.691810607910156
C 55.92442321777344 46.83635330200195 34.33552169799805
C 53.90126037597656 45.69865036010742 33.53264236450195
C 51.323387145996094 51.01285171508789 36.2127571105957
C 49.98118591308594 49.509700775146484 35.14208221435547
C 54.91442108154297 46.65493392944336 33.38002395629883
C 53.02073669433594 51.2169075012207 34.48462677001953
C 53.576881408691406 45.97384262084961 40.85837173461914
N 52.915992736816406 44.90077590942383 41.14474868774414
C 52.14403533935547 44.444271087646484 39.964256286621094
H 51.07410430908203 44.4348030090332 40.18745040893555
H 52.46959686279297 43.43082046508789 39.716121673583984
C 56.348548889160156 47.73362350463867 43.73933029174805
C 55.40959167480469 48.479610443115234 43.026641845703125
H 55.43409729003906 49.559818267822266 43.145477294921875
C 54.4769287109375 47.98421859741211 42.18132400512695
H 53.91792297363281 48.733333587646484 41.62642288208008
C 54.42913818359375 46.60781478881836 41.970184326171875
C 56.283447265625 46.37875747680664 43.61600112915039
H 56.980140686035156 45.715755462646484 44.12257766723633
C 55.31532287597656 45.84809494018555 42.77198791503906
H 55.26605224609375 44.768367767333984 42.656490325927734
C 57.247589111328125 48.31197738647461 44.81755065917969
C 56.94563293457031 49.72225570678711 45.25163269042969
C 56.94194793701172 50.9358024597168 44.62807846069336
H 57.15716552734375 51.1463508605957 43.58568572998047
C 56.849464416503906 51.92573165893555 45.62549591064453
H 56.85157012939453 52.98800277709961 45.40457534790039
C 56.85166931152344 51.32688522338867 46.84291076660156
N 56.89899444580078 50.010189056396484 46.60285186767578
H 56.836647033691406 49.37027359008789 47.38307189941406
C 56.84107971191406 51.917964935302734 48.10527038574219
H 56.557159423828125 52.9660758972168 48.022911071777344
C 57.03868865966797 51.51252365112305 49.41646957397461
C 56.908172607421875 52.2676887512207 50.58511734008789
H 56.729225158691406 53.33742141723633 50.61460876464844
C 57.224876403808594 51.386905670166016 51.61759948730469
H 57.2750244140625 51.60063552856445 52.68015670776367
C 57.38005828857422 50.12489700317383 51.0248908996582
N 57.33558654785156 50.23122787475586 49.69950485229492
C 57.68138885498047 48.834590911865234 51.6828727722168
C 58.68426513671875 48.038639068603516 51.11376953125
C 59.893409729003906 47.505008697509766 51.686851501464844
H 60.14470672607422 47.52017593383789 52.74224090576172
C 60.61955261230469 46.95095443725586 50.6432991027832
H 61.56999969482422 46.433231353759766 50.719791412353516
C 59.9395751953125 47.098758697509766 49.40920639038086
N 58.756317138671875 47.70707321166992 49.77249526977539
H 57.96307373046875 47.84608840942383 49.16130065917969
C 60.24535369873047 46.59736251831055 48.21111297607422
H 61.17137145996094 46.025691986083984 48.25126266479492
C 59.619529724121094 46.80327224731445 46.963104248046875
C 59.96436309814453 46.2567024230957 45.667083740234375
H 60.7728271484375 45.55891799926758 45.475502014160156
C 59.12001037597656 46.73508071899414 44.732200622558594
H 59.086891174316406 46.4476203918457 43.68649673461914
C 58.219085693359375 47.50417709350586 45.44000244140625
N 58.54847717285156 47.55032730102539 46.74467849731445
C 55.20758056640625 47.261234283447266 54.8526496887207
C 56.273193359375 46.50571060180664 54.30855941772461
H 56.389892578125 45.47209548950195 54.624141693115234
C 57.05528259277344 47.0959587097168 53.292423248291016
H 57.86499786376953 46.49758529663086 52.8826789855957
C 56.820945739746094 48.39144515991211 52.817848205566406
C 55.0189208984375 48.597843170166016 54.501609802246094
H 54.26893615722656 49.20204544067383 55.00563430786133
C 55.82420349121094 49.13505172729492 53.46706008911133
H 55.58942413330078 50.14091873168945 53.12843704223633
N 54.509002685546875 46.646121978759766 55.88338851928711
H 55.08685302734375 46.28609848022461 56.628074645996094
C 53.21417236328125 46.46132278442383 55.93961715698242
O 52.534095764160156 46.78652572631836 54.99332809448242
C 52.66974639892578 46.00392532348633 57.251834869384766
C 51.331207275390625 46.03340530395508 57.414955139160156
H 50.603614807128906 46.33316421508789 56.66506576538086
C 50.79436492919922 45.57472610473633 58.53514099121094
C 51.607666015625 45.199581146240234 59.625484466552734
H 51.12183380126953 44.77816390991211 60.50180435180664
C 52.94745635986328 45.14133071899414 59.494293212890625
H 53.601043701171875 44.7881965637207 60.287818908691406
C 53.47931671142578 45.49232864379883 58.288658142089844
H 54.56151580810547 45.403446197509766 58.23838424682617
C 49.326637268066406 45.44108963012695 58.5987548828125
H 48.9168701171875 45.725032806396484 57.630558013916016
C 48.48914337158203 45.06303787231445 59.59977340698242
H 48.909156799316406 44.747989654541016 60.55385208129883
C 47.035606384277344 45.20600509643555 59.578182220458984
C 46.19435119628906 44.54874038696289 60.674190521240234
H 46.858123779296875 44.21577072143555 61.47481918334961
H 45.65110778808594 43.72722244262695 60.20252990722656
H 45.49308776855469 45.2841911315918 61.07395935058594
C 46.38923645019531 45.88508987426758 58.659881591796875
H 47.064247131347656 46.368289947509766 57.95503616333008
C 44.959129333496094 46.12163162231445 58.46759796142578
H 44.459251403808594 46.182613372802734 59.43317413330078
C 44.426177978515625 46.537296295166016 57.30276870727539
H 45.064544677734375 46.4629020690918 56.42363739013672
C 43.078636169433594 47.0779914855957 57.14359664916992
C 42.90863037109375 48.00583267211914 55.98058319091797
H 42.265716552734375 47.4722785949707 55.277427673339844
H 42.506134033203125 48.97622299194336 56.27859115600586
H 43.853424072265625 48.15037155151367 55.452423095703125
C 41.97295379638672 46.75856399536133 57.841209411621094
H 42.094398498535156 46.03628921508789 58.64712142944336
C 40.579811096191406 47.22573471069336 57.678123474121094
H 40.502838134765625 48.0805778503418 57.007869720458984
C 39.544593811035156 46.74826431274414 58.420448303222656
H 39.716087341308594 46.0560417175293 59.24345779418945
C 38.31077575683594 47.51504135131836 58.400535583496094
H 38.31941223144531 48.337825775146484 57.68717956542969
C 37.29444122314453 47.41084671020508 59.24210739135742
C 37.295997619628906 46.3098030090332 60.28322219848633
H 36.281341552734375 46.078548431396484 60.61405944824219
H 37.820167541503906 45.44283676147461 59.875694274902344
H 37.7197265625 46.72358322143555 61.20066452026367
C 36.15708923339844 48.33090591430664 59.289825439453125
H 35.370094299316406 47.890872955322266 59.900508880615234
C 35.93116760253906 49.51581954956055 58.6881103515625
H 36.781700134277344 49.952823638916016 58.16701126098633
C 34.71921920776367 50.31757736206055 58.90657043457031
H 33.94763946533203 49.80061721801758 59.47520065307617
C 34.59527587890625 51.60323715209961 58.70254135131836
C 35.64897918701172 52.374019622802734 57.999507904052734
H 35.468788146972656 52.3875617980957 56.92256546020508
H 35.60533142089844 53.450862884521484 58.17547607421875
H 36.67505645751953 52.10665512084961 58.26057815551758
C 33.40629196166992 52.336612701416016 59.03839874267578
H 32.7547721862793 51.91914749145508 59.80466842651367
C 32.94252014160156 53.375003814697266 58.278926849365234
H 33.52737045288086 53.68599319458008 57.4145393371582
C 31.729942321777344 54.08100509643555 58.47229766845703
C 31.20013427734375 54.39333724975586 59.72742462158203
C 31.804473876953125 54.21609878540039 61.085174560546875
H 31.587276458740234 55.04172134399414 61.76608657836914
H 31.37390899658203 53.2680778503418 61.41431427001953
H 32.894432067871094 54.1495475769043 61.09015655517578
C 29.878643035888672 55.17122268676758 59.81955337524414
H 30.220420837402344 56.20290756225586 59.925777435302734
H 29.26813507080078 54.98244857788086 60.70505142211914
C 29.01385498046875 54.88553237915039 58.581504821777344
H 28.09503936767578 55.47335433959961 58.63352584838867
H 28.66039276123047 53.85556411743164 58.49967956542969
C 29.79456329345703 55.42147445678711 57.37254333496094
H 29.212055206298828 55.52821731567383 56.455074310302734
H 30.134239196777344 56.40738296508789 57.69670104980469
C 31.048755645751953 54.60526657104492 57.141441345214844
C 30.63637924194336 53.542293548583984 56.175601959228516
H 30.085132598876953 52.812931060791016 56.772769927978516
H 30.05648422241211 53.87960433959961 55.31397247314453
H 31.570453643798828 53.1057014465332 55.815921783447266
C 31.906543731689453 55.514156341552734 56.20743942260742
H 31.362022399902344 55.859798431396484 55.32625198364258
H 32.273067474365234 56.4682502746582 56.59193420410156
H 32.744712829589844 54.91898727416992 55.83906173706055
