207
Triad, Carotenoid-Porphyrin-C60
C 56.57575225830078 44.52995681762695 36.60823059082031
C 50.58271789550781 46.8221549987793 36.11699676513672
C 52.1447868347168 47.26900100708008 37.6335334777832
C 54.565773010253906 47.1376953125 37.96821975708008
C 50.38472366333008 45.90713119506836 33.91510772705078
C 50.10303497314453 45.848751068115234 35.256813049316406
C 51.68076705932617 47.86420440673828 34.29912567138672
C 53.64616394042969 48.49943923950195 36.140323638916016
C 56.74271774291992 45.90789031982422 34.88727951049805
C 51.24300003051758 46.88536071777344 33.44560241699219
C 56.31378173828125 45.79891586303711 37.0923957824707
C 52.438072204589844 43.20690155029297 32.6481819152832
C 50.636714935302734 44.62129211425781 33.449710845947266
C 54.840789794921875 43.0792121887207 32.802486419677734
C 55.83271789550781 45.26808547973633 32.74635314941406
C 55.91268539428711 43.92936325073242 33.0756721496582
C 52.373199462890625 45.34986114501953 31.9449520111084
C 52.95491409301758 48.264278411865234 33.89616775512695
C 53.925811767578125 48.55701446533203 34.800079345703125
C 55.55192947387695 47.42747497558594 33.46463394165039
C 52.34001922607422 43.08054733276367 38.26606369018555
C 51.43877029418945 42.98704528808594 37.044315338134766
C 52.17603302001953 44.60188293457031 38.53594970703125
C 51.10232162475586 45.09330368041992 37.774959564208984
C 55.649749755859375 42.548362731933594 34.80220031738281
C 51.83193588256836 42.3046760559082 35.88014602661133
C 55.39627456665039 46.02108383178711 38.02631759643555
C 52.30219268798828 42.348602294921875 33.71611785888672
C 50.48255157470703 43.76617431640625 34.54950714111328
C 54.720035552978516 42.198421478271484 33.88066482543945
C 53.32886505126953 45.4007453918457 38.71067428588867
C 53.677345275878906 44.88496780395508 31.758737564086914
C 54.76704406738281 45.75151824951172 32.05990982055664
C 55.19800567626953 48.16910934448242 34.64698791503906
C 53.274532318115234 47.515140533447266 32.770660400390625
C 53.78135299682617 42.55184555053711 38.04581069946289
C 54.15342330932617 42.01315689086914 36.66108322143555
C 54.854736328125 43.62738800048828 38.069454193115234
C 55.378746032714844 42.46608352661133 36.1555290222168
C 56.293914794921875 46.24167251586914 33.641414642333984
C 50.59016036987305 44.10452651977539 36.95979690551758
C 54.60136413574219 44.93383026123047 38.48486328125
C 55.83238983154297 43.496788024902344 37.04128646850586
C 53.25759506225586 46.819190979003906 38.342811584472656
C 56.412967681884766 43.62623596191406 34.32602310180664
C 53.131595611572266 41.77433395385742 35.732093811035156
C 51.294158935546875 42.602115631103516 34.65694808959961
C 51.04660415649414 46.45866775512695 37.35962677001953
C 50.1370849609375 44.518531799316406 35.67668533325195
C 54.585182189941406 47.0546989440918 32.49680709838867
C 53.424869537353516 41.84487533569336 34.36429214477539
C 56.82018280029297 44.619266510009766 35.24592590332031
C 51.38890838623047 47.85234069824219 35.6341438293457
C 52.37474822998047 48.14400863647461 36.58597946166992
C 54.701690673828125 47.99005889892578 36.87449264526367
C 56.463470458984375 46.68429946899414 36.00368881225586
C 51.586578369140625 44.31612014770508 32.47209548950195
C 53.71270751953125 43.57732391357422 32.13425064086914
C 55.7000846862793 47.812137603759766 35.89458465576172
C 52.2108154296875 46.616851806640625 32.50048828125
C 51.80391311645508 42.228065490722656 39.3722038269043
N 52.659393310546875 41.33300018310547 39.781253814697266
C 53.99457931518555 41.48466110229492 39.12945556640625
H 54.43593978881836 40.55683517456055 38.75664520263672
H 54.704368591308594 41.87792205810547 39.86171340942383
C 47.85313034057617 42.23655319213867 41.07987976074219
C 48.43449020385742 41.09031295776367 40.54148483276367
H 47.90744400024414 40.14252471923828 40.61560821533203
C 49.63601303100586 41.17416763305664 39.888404846191406
H 49.945194244384766 40.255340576171875 39.3967399597168
C 50.416744232177734 42.27174377441406 39.902095794677734
C 48.57368850708008 43.48299789428711 40.899234771728516
H 48.31068420410156 44.3658561706543 41.476261138916016
C 49.833614349365234 43.4549560546875 40.334293365478516
H 50.47417068481445 44.32548522949219 40.218387603759766
C 46.56891632080078 42.20346450805664 41.80823516845703
C 45.90776062011719 40.947547912597656 42.035247802734375
C 45.44326400756836 39.88462448120117 41.254825592041016
H 45.47314453125 39.903717041015625 40.17040252685547
C 44.65760040283203 39.003456115722656 42.04876708984375
H 44.12678146362305 38.09387969970703 41.78774642944336
C 44.64288330078125 39.542808532714844 43.29326248168945
N 45.48102951049805 40.59803771972656 43.281898498535156
H 45.768917083740234 41.175537109375 44.06018829345703
C 44.04319381713867 39.08720779418945 44.54497528076172
H 43.62737274169922 38.083717346191406 44.46725082397461
C 43.86190414428711 39.74801254272461 45.761749267578125
C 43.0367546081543 39.162757873535156 46.78472137451172
H 42.45423126220703 38.257442474365234 46.64942932128906
C 43.01876449584961 40.053226470947266 47.818721771240234
H 42.504295349121094 39.95310592651367 48.76873779296875
C 43.912254333496094 41.175804138183594 47.42707824707031
N 44.34870529174805 40.966487884521484 46.16692352294922
C 44.2928581237793 42.355777740478516 48.16719436645508
C 44.287540435791016 43.64366149902344 47.64911651611328
C 43.58790969848633 44.81020736694336 48.0350341796875
H 42.93206787109375 44.84821701049805 48.89854431152344
C 43.661128997802734 45.77495193481445 47.05585479736328
H 43.18265914916992 46.746482849121094 46.98933410644531
C 44.39549255371094 45.23641586303711 46.01449203491211
N 44.80684280395508 44.09173583984375 46.44490432739258
H 45.39116287231445 43.467185974121094 45.90581130981445
C 44.51687240600586 45.57999801635742 44.73279571533203
H 44.05580139160156 46.55105209350586 44.55846405029297
C 45.11994552612305 44.85313415527344 43.559085845947266
C 45.0391731262207 45.348140716552734 42.19827651977539
H 44.6312370300293 46.27627182006836 41.8117790222168
C 45.65336608886719 44.364749908447266 41.51165008544922
H 45.75952911376953 44.28971862792969 40.43446731567383
C 46.04153823852539 43.344696044921875 42.333065032958984
N 45.72603988647461 43.67544174194336 43.581356048583984
C 44.91609573364258 42.29136657714844 52.463478088378906
C 45.18223190307617 43.39148712158203 51.68814468383789
H 45.529170989990234 44.31574249267578 52.143062591552734
C 44.998592376708984 43.377254486083984 50.29098129272461
H 45.236114501953125 44.295475006103516 49.75992202758789
C 44.58026885986328 42.23042297363281 49.65757369995117
C 44.650367736816406 41.09471893310547 51.82465744018555
H 44.346649169921875 40.29558563232422 52.496009826660156
C 44.49467086791992 41.077640533447266 50.479896545410156
H 44.1478271484375 40.196380615234375 49.946372985839844
N 45.01542282104492 42.4572868347168 53.89514923095703
H 45.90848159790039 42.805931091308594 54.209754943847656
C 44.23170852661133 42.082489013671875 54.86744689941406
O 43.21223068237305 41.456642150878906 54.61867141723633
C 44.64738082885742 42.4767951965332 56.302520751953125
C 45.340999603271484 43.67676544189453 56.46064758300781
H 45.43975830078125 44.363224029541016 55.623634338378906
C 45.6208381652832 44.19062042236328 57.716732025146484
C 45.24629211425781 43.420528411865234 58.80726623535156
H 45.45051574707031 43.821983337402344 59.79655838012695
C 44.5237922668457 42.23420715332031 58.66574478149414
H 44.190921783447266 41.65549850463867 59.52356719970703
C 44.16899108886719 41.806209564208984 57.42396926879883
H 43.533145904541016 40.92972946166992 57.328765869140625
C 46.25102996826172 45.462425231933594 57.78490447998047
H 46.393375396728516 45.949100494384766 56.8211555480957
C 46.5457763671875 46.115203857421875 58.96213912963867
H 46.28168487548828 45.69328689575195 59.930728912353516
C 47.09636306762695 47.44143295288086 59.219200134277344
C 47.555030822753906 48.17435836791992 57.97904586791992
H 47.89712905883789 47.57456588745117 57.13306427001953
H 48.51148223876953 48.656982421875 58.19055938720703
H 46.79146957397461 48.882118225097656 57.649635314941406
C 47.26823806762695 47.898372650146484 60.47135925292969
H 46.98046112060547 47.237369537353516 61.287559509277344
C 47.88290786743164 49.109928131103516 60.82759094238281
H 47.73853302001953 49.90625762939453 60.098934173583984
C 48.198333740234375 49.4481201171875 62.110206604003906
H 48.22426986694336 48.689151763916016 62.89072799682617
C 48.55557632446289 50.753074645996094 62.64305114746094
C 49.194705963134766 50.888404846191406 63.954654693603516
H 49.276275634765625 49.91865539550781 64.45002746582031
H 50.21224594116211 51.2841796875 63.93384552001953
H 48.552101135253906 51.528724670410156 64.56253051757812
C 48.41134262084961 51.8525390625 61.87734603881836
H 47.76926040649414 51.74034881591797 61.00495529174805
C 48.72931671142578 53.25366973876953 62.14501190185547
H 49.160560607910156 53.38744354248047 63.13600158691406
C 48.38296127319336 54.295631408691406 61.37803268432617
H 48.003047943115234 54.12237548828125 60.37226867675781
C 48.68363571166992 55.670936584472656 61.70665740966797
H 49.010765075683594 55.85960388183594 62.728084564208984
C 48.57888412475586 56.70777130126953 60.93539047241211
C 48.29195022583008 56.593727111816406 59.50709915161133
H 47.31135559082031 56.177879333496094 59.26633071899414
H 48.26425552368164 57.567901611328125 59.014469146728516
H 49.040283203125 55.930145263671875 59.06877517700195
C 48.92002487182617 58.11695098876953 61.30442428588867
H 49.70924758911133 58.20741271972656 62.04931640625
C 48.18632125854492 59.24116516113281 60.95596694946289
H 47.28533935546875 59.1976318359375 60.34584045410156
C 48.4118537902832 60.58416748046875 61.612125396728516
H 49.2759895324707 60.579917907714844 62.27482604980469
C 47.805267333984375 61.736839294433594 61.36974334716797
C 46.77928924560547 61.93335723876953 60.27006149291992
H 46.877105712890625 62.91253662109375 59.79666519165039
H 47.108028411865234 61.21124267578125 59.51976776123047
H 45.75252914428711 61.71782684326172 60.572998046875
C 48.15153884887695 62.957122802734375 62.07781219482422
H 49.21208953857422 63.060882568359375 62.30229949951172
C 47.19752502441406 63.904151916503906 62.350399017333984
H 46.16082000732422 63.63639831542969 62.15170669555664
C 47.291351318359375 65.31511688232422 62.87456512451172
C 48.39411163330078 66.09381866455078 62.73555374145508
C 49.634239196777344 65.70689392089844 61.94808578491211
H 49.41393280029297 65.00333404541016 61.14252853393555
H 50.04756164550781 66.55990600585938 61.40587615966797
H 50.490333557128906 65.32264709472656 62.50658416748047
C 48.67302703857422 67.4908447265625 63.275909423828125
H 48.5545539855957 68.14584350585938 62.41022491455078
H 49.726905822753906 67.69221496582031 63.479034423828125
C 47.79924392700195 67.79177856445312 64.48358154296875
H 47.84177017211914 68.85664367675781 64.72177124023438
H 48.19184494018555 67.20821380615234 65.31891632080078
C 46.29393768310547 67.37864685058594 64.18181610107422
H 45.572113037109375 67.51421356201172 64.98992919921875
H 45.96576690673828 67.9391098022461 63.303951263427734
C 46.133426666259766 65.8992919921875 63.7845573425293
C 45.992801666259766 65.16960144042969 65.08901977539062
H 45.66325759887695 64.13168334960938 65.00789642333984
H 46.97718048095703 65.11954498291016 65.55908203125
H 45.403404235839844 65.72944641113281 65.81816864013672
C 44.795406341552734 65.66442108154297 63.15451431274414
H 44.58902359008789 66.3526382446289 62.33218002319336
H 44.59425735473633 64.68290710449219 62.7202033996582
H 43.96672821044922 65.85653686523438 63.8392333984375
