207
Triad, Carotenoid-Porphyrin-C60
C 46.36323928833008 48.69155502319336 32.20054244995117
C 46.46219253540039 42.202030181884766 33.59027862548828
C 44.848846435546875 43.805885314941406 33.811004638671875
C 44.21316909790039 45.88966751098633 33.0326042175293
C 48.58758544921875 41.9986457824707 32.30638885498047
C 47.89215087890625 42.10456466674805 33.50852584838867
C 46.46056365966797 42.2095832824707 31.196117401123047
C 44.31938171386719 44.039093017578125 31.434955596923828
C 46.16251754760742 47.79354476928711 30.163986206054688
C 47.89889144897461 42.128021240234375 31.12405014038086
C 45.190582275390625 47.89188003540039 32.16096496582031
C 50.74254608154297 44.76679992675781 31.530471801757812
C 49.77903747558594 42.711612701416016 32.45876693725586
C 50.03628158569336 46.98312759399414 30.739471435546875
C 48.168365478515625 46.82967758178711 29.22557830810547
C 48.97081756591797 47.55153274536133 30.064453125
C 49.607383728027344 43.56367492675781 30.122894287109375
C 46.13486862182617 43.0984001159668 30.183128356933594
C 45.063228607177734 43.96561813354492 30.303085327148438
C 46.34420394897461 45.68486404418945 29.13482666015625
C 47.59693145751953 45.98918151855469 36.04036331176758
C 48.669368743896484 45.006893157958984 35.60829544067383
C 46.353878021240234 45.243019104003906 35.6387939453125
C 46.70438766479492 43.889556884765625 35.31305694580078
C 49.05937576293945 48.3747673034668 32.178348541259766
C 49.7548828125 45.40676498413086 34.82984924316406
C 44.745243072509766 47.15438461303711 33.23640441894531
C 50.75060272216797 45.26671600341797 32.793418884277344
C 49.86632537841797 43.2194938659668 33.70154571533203
C 50.149139404296875 47.48258590698242 32.04254150390625
C 45.324317932128906 45.85524368286133 34.97370147705078
C 49.62944030761719 44.87468338012695 29.60147476196289
C 48.5295295715332 45.495113372802734 29.024784088134766
C 45.14014434814453 45.2331657409668 29.73638916015625
C 47.27268600463867 43.47339630126953 29.455806732177734
C 47.75743865966797 47.42007827758789 35.523162841796875
C 48.895938873291016 47.66018295288086 34.48835372924805
C 46.60179138183594 47.859249114990234 34.595672607421875
C 48.417457580566406 48.48848342895508 33.43500900268555
C 46.780338287353516 46.940425872802734 29.207935333251953
C 48.08340072631836 43.81588363647461 35.29175567626953
C 45.451419830322266 47.14167404174805 34.421329498291016
C 47.04553985595703 48.60918045043945 33.475830078125
C 44.54163360595703 45.10568618774414 34.12688446044922
C 48.38053512573242 48.452213287353516 30.961654663085938
C 49.87509536743164 46.68989944458008 34.26304244995117
C 50.280818939208984 44.54264831542969 33.8858642578125
C 45.88588333129883 43.18149948120117 34.4281005859375
C 48.66264343261719 42.91315841674805 34.33396530151367
C 47.35832977294922 44.78019332885742 28.94184112548828
C 50.54008483886719 46.612159729003906 33.090023040771484
C 47.01023483276367 48.557674407958984 30.983718872070312
C 45.7410774230957 42.23953628540039 32.41625213623047
C 44.75587844848633 43.243064880371094 32.5317497253418
C 44.01144027709961 45.40157699584961 31.741355895996094
C 45.03955078125 47.42438888549805 30.866687774658203
C 50.260929107666016 43.49775314331055 31.36396026611328
C 50.373191833496094 45.60560607910156 30.474044799804688
C 44.52275085449219 46.09642028808594 30.6702880859375
C 48.3630256652832 42.89151382446289 30.067520141601562
C 47.61867904663086 46.173580169677734 37.573280334472656
N 47.764854431152344 47.37276840209961 37.98279571533203
C 48.035640716552734 48.2262077331543 36.81529235839844
H 49.0670280456543 48.587764739990234 36.80226516723633
H 47.484275817871094 49.16994094848633 36.812129974365234
C 46.94466781616211 43.00703811645508 40.38745880126953
C 48.201114654541016 43.405540466308594 39.980560302734375
H 49.09543991088867 43.02457046508789 40.467002868652344
C 48.388675689697266 44.34719467163086 38.997344970703125
H 49.416812896728516 44.63449478149414 38.79249572753906
C 47.35693359375 45.08120346069336 38.47908020019531
C 45.89118576049805 43.66175079345703 39.75215148925781
H 44.869056701660156 43.51512145996094 40.09174346923828
C 46.07256317138672 44.65122604370117 38.820892333984375
H 45.23686981201172 45.177616119384766 38.366905212402344
C 46.71134567260742 42.004093170166016 41.436676025390625
C 47.92451095581055 41.36048889160156 42.04945373535156
C 49.073787689208984 40.873451232910156 41.606163024902344
H 49.28114700317383 40.6598014831543 40.56281280517578
C 49.96171951293945 40.59082794189453 42.691993713378906
H 50.9671745300293 40.225799560546875 42.510215759277344
C 49.31502151489258 41.007728576660156 43.86149597167969
N 48.05214309692383 41.262184143066406 43.45207214355469
H 47.27652359008789 41.50685119628906 44.052635192871094
C 49.726837158203125 40.84165573120117 45.248695373535156
H 50.794498443603516 40.67805480957031 45.387474060058594
C 49.14906311035156 41.212337493896484 46.44334411621094
C 49.649845123291016 42.285526275634766 47.25086212158203
H 50.54448699951172 42.842926025390625 46.993675231933594
C 48.60627746582031 42.624595642089844 48.09813690185547
H 48.60349655151367 43.420352935791016 48.835693359375
C 47.5390625 41.73990249633789 47.85332489013672
N 47.841590881347656 40.89216232299805 46.82713317871094
C 46.191829681396484 41.88755798339844 48.474510192871094
C 45.015220642089844 41.49232864379883 47.834503173828125
C 43.740535736083984 40.955589294433594 48.244712829589844
H 43.509033203125 40.809757232666016 49.294647216796875
C 42.932098388671875 40.67848205566406 47.16973876953125
H 41.89717102050781 40.35500717163086 47.208892822265625
C 43.635948181152344 40.90983963012695 45.970298767089844
N 44.792503356933594 41.431636810302734 46.45747375488281
H 45.48794937133789 41.82799530029297 45.83992004394531
C 43.2238883972168 40.69409942626953 44.65947723388672
H 42.222869873046875 40.26741027832031 44.61676025390625
C 43.90830993652344 41.04621505737305 43.39666748046875
C 43.40603256225586 40.87067413330078 42.09388732910156
H 42.40840530395508 40.5035400390625 41.876678466796875
C 44.413143157958984 41.2621955871582 41.27583312988281
H 44.250831604003906 41.09798812866211 40.21568298339844
C 45.46100616455078 41.731475830078125 41.98106384277344
N 45.141170501708984 41.577735900878906 43.27185821533203
C 45.97865295410156 43.41817855834961 52.588470458984375
C 44.816612243652344 43.274261474609375 51.77568817138672
H 43.87617492675781 43.69792556762695 52.11871337890625
C 44.89244079589844 42.78068161010742 50.47137451171875
H 44.02249526977539 42.81979751586914 49.82080841064453
C 46.1287956237793 42.37227249145508 49.92292022705078
C 47.155887603759766 42.80351638793945 52.140785217285156
H 47.97774124145508 42.69365692138672 52.84367370605469
C 47.22025680541992 42.348121643066406 50.833953857421875
H 48.13972473144531 41.876380920410156 50.49690246582031
N 45.834774017333984 44.06613540649414 53.87171173095703
H 45.74787139892578 45.07137680053711 53.876739501953125
C 45.08088684082031 43.48259353637695 54.82373046875
O 44.86312484741211 42.29146194458008 54.83575439453125
C 44.61043167114258 44.42634582519531 55.91566467285156
C 45.343013763427734 45.52269744873047 56.30274963378906
H 46.30158233642578 45.65142822265625 55.806617736816406
C 45.067039489746094 46.35437774658203 57.340362548828125
C 43.880348205566406 46.10511779785156 57.99861145019531
H 43.517601013183594 46.745243072509766 58.79875183105469
C 43.029544830322266 45.037193298339844 57.600067138671875
H 42.06874084472656 44.94943618774414 58.100791931152344
C 43.46298599243164 44.210487365722656 56.56488037109375
H 42.792179107666016 43.48939895629883 56.1048583984375
C 45.91309356689453 47.51552200317383 57.68811798095703
H 46.869842529296875 47.51747512817383 57.16796875
C 45.73454284667969 48.54838943481445 58.615440368652344
H 44.79768753051758 48.58034133911133 59.169700622558594
C 46.668155670166016 49.58010482788086 59.063682556152344
C 48.10034942626953 49.03428268432617 59.317344665527344
H 48.57355880737305 49.41108322143555 60.22650146484375
H 48.70161056518555 49.11003494262695 58.40892791748047
H 47.87458801269531 47.97147750854492 59.42664337158203
C 46.172245025634766 50.753238677978516 59.53657531738281
H 45.112220764160156 50.926700592041016 59.35718536376953
C 46.958984375 51.82693099975586 60.16686248779297
H 48.020206451416016 51.61130142211914 60.28190612792969
C 46.422977447509766 53.04469680786133 60.57439422607422
H 45.35844421386719 53.21393966674805 60.419281005859375
C 47.182708740234375 54.07667922973633 61.23651123046875
C 46.54022979736328 55.45932388305664 61.086936950683594
H 45.52561950683594 55.463191986083984 60.683197021484375
H 46.37295150756836 55.81209182739258 62.10675811767578
H 47.169925689697266 56.09299850463867 60.45892333984375
C 48.35933303833008 53.803218841552734 61.88794708251953
H 48.76934814453125 52.79441452026367 61.89964294433594
C 49.218421936035156 54.81905746459961 62.5252685546875
H 48.9740104675293 55.877498626708984 62.44850158691406
C 50.41999053955078 54.514652252197266 63.072723388671875
H 50.82891845703125 53.50716018676758 63.01221466064453
C 51.37156677246094 55.49161148071289 63.63488006591797
H 51.110877990722656 56.54781723022461 63.68376922607422
C 52.58192443847656 55.20952224731445 64.13207244873047
C 53.09584426879883 53.821537017822266 64.16303253173828
H 54.10165023803711 53.79329299926758 64.58732604980469
H 52.38387680053711 53.07831954956055 64.52799987792969
H 53.171756744384766 53.632877349853516 63.09013366699219
C 53.45549392700195 56.1678352355957 64.86834716796875
H 54.456565856933594 55.802181243896484 65.09211730957031
C 53.13397979736328 57.37026596069336 65.20823669433594
H 52.14469909667969 57.765445709228516 64.98222351074219
C 54.018611907958984 58.282779693603516 65.82405090332031
H 55.01572036743164 57.91371536254883 66.05960845947266
C 53.829105377197266 59.572383880615234 66.14602661132812
C 52.51079177856445 60.233768463134766 66.19392395019531
H 52.53330612182617 61.19585037231445 65.67782592773438
H 51.722381591796875 59.70504379272461 65.65418243408203
H 52.23490524291992 60.43290328979492 67.23155975341797
C 54.9443359375 60.35276412963867 66.73307800292969
H 55.93528366088867 59.902164459228516 66.76311492919922
C 54.8388557434082 61.59092330932617 67.32791900634766
H 53.900856018066406 62.14336013793945 67.35768127441406
C 55.983367919921875 62.301753997802734 67.93317413330078
C 56.62553787231445 61.86465072631836 69.00074005126953
C 56.415225982666016 60.580684661865234 69.87850952148438
H 55.45364761352539 60.56962203979492 70.39591217041016
H 56.44233703613281 59.736263275146484 69.1866455078125
H 57.25442886352539 60.34286880493164 70.53550720214844
C 57.739845275878906 62.68435287475586 69.64521026611328
H 58.4926872253418 62.01369857788086 70.06463623046875
H 57.35045623779297 63.228878021240234 70.5079574584961
C 58.377384185791016 63.6551399230957 68.67798614501953
H 58.95378494262695 63.216922760009766 67.86054992675781
H 59.02794647216797 64.3730239868164 69.18183898925781
C 57.23762893676758 64.48695373535156 68.1612777709961
H 56.712074279785156 64.8783950805664 69.0347900390625
H 57.549224853515625 65.41078186035156 67.66943359375
C 56.237545013427734 63.68622970581055 67.34210205078125
C 55.01351547241211 64.56464385986328 67.15200805664062
H 54.39072799682617 64.1427230834961 66.36044311523438
H 54.41486358642578 64.56842803955078 68.0652847290039
H 55.27883529663086 65.58228302001953 66.85791778564453
C 56.8715705871582 63.67415237426758 65.94376373291016
H 57.08261489868164 64.66223907470703 65.52948760986328
H 57.76569747924805 63.06251907348633 66.08120727539062
H 56.168216705322266 63.15241622924805 65.29142761230469
