207
Triad, Carotenoid-Porphyrin-C60
C 62.08962631225586 50.959632873535156 61.073795318603516
C 55.70159912109375 51.056785583496094 59.52894973754883
C 57.38067626953125 50.16197204589844 58.35387420654297
C 59.68085479736328 49.460227966308594 58.86991500854492
C 55.15298080444336 51.713836669921875 61.82076644897461
C 55.323001861572266 52.06373596191406 60.432125091552734
C 55.71419906616211 49.438575744628906 61.30324935913086
C 57.86412811279297 48.319183349609375 59.87113952636719
C 61.28129196166992 49.375816345214844 62.49100112915039
C 55.27067184448242 50.40636444091797 62.2244987487793
C 61.53374099731445 49.89759826660156 60.344566345214844
C 57.51082992553711 53.20817565917969 64.11190795898438
C 55.643150329589844 52.74517059326172 62.601078033447266
C 59.809349060058594 52.486305236816406 64.48587036132812
C 59.970367431640625 50.075721740722656 64.34596252441406
C 60.61153793334961 51.32716369628906 64.4147720336914
C 56.54214859008789 51.20085906982422 64.19092559814453
C 56.587745666503906 48.569488525390625 61.945037841796875
C 57.65205383300781 47.99060821533203 61.204898834228516
C 59.08559036254883 48.35387420654297 63.11710739135742
C 59.13761901855469 53.99162292480469 58.7682991027832
C 58.00537109375 54.34820556640625 59.74053955078125
C 58.5668830871582 52.714561462402344 58.19627380371094
C 57.23017501831055 52.6053466796875 58.45769500732422
C 61.35464096069336 52.91553497314453 62.85441207885742
C 58.2819938659668 54.75666046142578 61.06532287597656
C 60.799015045166016 50.17887878417969 59.19023513793945
C 57.99993896484375 54.10900115966797 63.22024917602539
C 56.1760368347168 53.69823455810547 61.72066879272461
C 60.25471115112305 53.42085266113281 63.62215805053711
C 59.33427047729492 51.55176544189453 58.20636749267578
C 57.78326416015625 51.10363006591797 64.77921295166016
C 58.58012390136719 49.94658660888672 64.6402359008789
C 58.911949157714844 47.93677520751953 61.8038444519043
C 56.77729034423828 48.99009704589844 63.22230911254883
C 60.61642837524414 53.94026184082031 59.39000701904297
C 60.64661407470703 54.29351043701172 60.94256591796875
C 61.17635726928711 52.487648010253906 59.4249267578125
C 61.49336624145508 53.2880859375 61.518836975097656
C 60.253047943115234 49.10784912109375 63.40778732299805
C 56.96205139160156 53.52361297607422 59.453575134277344
C 60.63422775268555 51.446876525878906 58.72083282470703
C 61.84651565551758 52.24640655517578 60.616844177246094
C 58.775238037109375 50.288597106933594 58.223167419433594
C 61.53299331665039 51.618492126464844 63.3582878112793
C 59.54827880859375 54.759376525878906 61.67173385620117
C 57.349754333496094 54.396728515625 62.013790130615234
C 56.6490592956543 51.313880920410156 58.539119720458984
C 55.940799713134766 53.282615661621094 60.39167404174805
C 58.086822509765625 48.95508575439453 63.8260383605957
C 59.37746047973633 54.328025817871094 63.01850509643555
C 61.923011779785156 50.635223388671875 62.44136428833008
C 55.892234802246094 49.74494934082031 59.94227600097656
C 56.981597900390625 49.17498779296875 59.2493782043457
C 59.25315856933594 48.404563903808594 59.691619873046875
C 61.03444290161133 48.90375518798828 61.19983673095703
C 56.36737823486328 52.509864807128906 63.79240036010742
C 58.38711929321289 52.32615661621094 64.7370376586914
C 59.86591339111328 48.153167724609375 60.90441131591797
C 55.97218322753906 50.1280517578125 63.440914154052734
C 59.364192962646484 55.02757263183594 57.69981384277344
N 60.527103424072266 55.489044189453125 57.586143493652344
C 61.439788818359375 55.01170349121094 58.59978485107422
H 61.5910758972168 55.845611572265625 59.28997802734375
H 62.35806655883789 54.53248596191406 58.25083541870117
C 56.27936553955078 55.63829803466797 54.69502639770508
C 57.53858184814453 55.056182861328125 54.36386489868164
H 57.732940673828125 54.57952880859375 53.40647888183594
C 58.486328125 54.82203674316406 55.35102081298828
H 59.41583251953125 54.371971130371094 55.01184844970703
C 58.34189987182617 55.274635314941406 56.64906692504883
C 56.16565704345703 56.09850311279297 56.06446838378906
H 55.23982620239258 56.50450897216797 56.463932037353516
C 57.19601821899414 55.94245147705078 56.97929382324219
H 57.066741943359375 56.29859161376953 57.99812698364258
C 55.06659698486328 55.58277130126953 53.71414566040039
C 55.38740921020508 54.89942932128906 52.49183654785156
C 56.224063873291016 55.15156555175781 51.44090270996094
H 56.98060989379883 55.926170349121094 51.37116622924805
C 56.02760696411133 54.19878387451172 50.45787048339844
H 56.452484130859375 54.12776184082031 49.46205139160156
C 55.008846282958984 53.345123291015625 50.917694091796875
N 54.72880554199219 53.775909423828125 52.174407958984375
H 54.0222053527832 53.38024139404297 52.77961730957031
C 54.34121322631836 52.310142517089844 50.276187896728516
H 54.954959869384766 51.811607360839844 49.52738571166992
C 53.01803970336914 52.01170349121094 50.276390075683594
C 52.55449676513672 50.6988525390625 49.904747009277344
H 53.09659194946289 49.852088928222656 49.496883392333984
C 51.19607162475586 50.722137451171875 50.07337188720703
H 50.48823165893555 49.90599060058594 49.97289276123047
C 50.84700393676758 52.075347900390625 50.51864242553711
N 51.96207809448242 52.830841064453125 50.671363830566406
C 49.54255294799805 52.74907684326172 50.71030044555664
C 49.26012420654297 53.449951171875 51.86064910888672
C 48.00542449951172 53.66954040527344 52.467559814453125
H 47.107337951660156 53.096031188964844 52.263214111328125
C 48.11952209472656 54.74230194091797 53.4152946472168
H 47.41004180908203 55.254234313964844 54.05699920654297
C 49.544010162353516 55.13603210449219 53.44953918457031
N 50.0594596862793 54.21453857421875 52.622520446777344
H 51.05841827392578 54.23048400878906 52.467777252197266
C 50.21550750732422 56.15704345703125 54.0776481628418
H 49.60148620605469 56.807518005371094 54.69876480102539
C 51.64864730834961 56.357269287109375 54.25266647338867
C 52.28314208984375 57.42461395263672 54.901092529296875
H 51.77168655395508 58.267303466796875 55.354434967041016
C 53.58583450317383 57.237060546875 54.76008224487305
H 54.33642578125 57.91795349121094 55.147674560546875
C 53.84006118774414 56.099449157714844 54.05556869506836
N 52.65898895263672 55.58672332763672 53.74015426635742
C 47.123844146728516 53.093170166015625 47.05105209350586
C 46.72715377807617 53.59832763671875 48.29802703857422
H 45.792335510253906 54.1529541015625 48.289283752441406
C 47.469486236572266 53.597755432128906 49.46479415893555
H 47.20979690551758 54.163246154785156 50.356056213378906
C 48.66133117675781 52.80757141113281 49.524009704589844
C 48.307891845703125 52.33788299560547 47.0912971496582
H 48.64195251464844 51.78697967529297 46.2158088684082
C 49.06653594970703 52.19801330566406 48.28677749633789
H 49.98777770996094 51.62444305419922 48.224395751953125
N 46.45833206176758 53.32151794433594 45.78447341918945
H 45.93703079223633 54.18463134765625 45.74745559692383
C 45.99140167236328 52.34919738769531 44.858551025390625
O 46.291648864746094 51.18989562988281 45.071807861328125
C 45.20655059814453 52.892845153808594 43.6385383605957
C 44.537689208984375 52.074554443359375 42.81962966918945
H 44.49131774902344 51.02574157714844 43.10142517089844
C 44.06629943847656 52.50736999511719 41.57349395751953
C 44.1342887878418 53.82237243652344 41.261451721191406
H 43.83535385131836 54.18628692626953 40.28177261352539
C 44.66703796386719 54.78022003173828 42.21928405761719
H 44.63277053833008 55.85857391357422 42.08680725097656
C 45.273590087890625 54.28535461425781 43.3427848815918
H 45.762245178222656 54.89057159423828 44.10206985473633
C 43.4588623046875 51.60821533203125 40.57240676879883
H 43.33927536010742 50.596412658691406 40.956974029541016
C 43.17527389526367 51.79743957519531 39.27139663696289
H 43.535099029541016 52.739044189453125 38.859291076660156
C 42.639251708984375 50.89588928222656 38.31343078613281
C 42.04978942871094 51.60460662841797 37.11663055419922
H 41.1680793762207 51.03778839111328 36.810401916503906
H 42.7933464050293 51.46051025390625 36.32997512817383
H 41.71285629272461 52.62348937988281 37.318702697753906
C 42.38917541503906 49.59229278564453 38.44771957397461
H 42.75217819213867 49.209373474121094 39.400360107421875
C 41.8650016784668 48.644493103027344 37.51362228393555
H 42.082176208496094 48.87620544433594 36.47195816040039
C 41.2390251159668 47.528343200683594 37.906497955322266
H 41.162506103515625 47.3399658203125 38.97635269165039
C 40.69646453857422 46.43475341796875 37.082950592041016
C 40.145111083984375 46.77703094482422 35.728736877441406
H 39.05742645263672 46.78395080566406 35.825443267822266
H 40.480743408203125 47.71995544433594 35.292022705078125
H 40.497222900390625 45.938392639160156 35.124454498291016
C 40.69814682006836 45.222381591796875 37.56254577636719
H 41.17607116699219 45.05988311767578 38.52748107910156
C 40.150211334228516 44.122642517089844 37.00593185424805
H 39.829566955566406 44.10105895996094 35.965431213378906
C 39.997379302978516 42.97369384765625 37.660499572753906
H 40.290260314941406 42.87395477294922 38.70462417602539
C 39.44597625732422 41.80364227294922 37.06534957885742
H 39.344093322753906 41.773681640625 35.981536865234375
C 38.958003997802734 40.772911071777344 37.74049377441406
C 38.913612365722656 40.753570556640625 39.246246337890625
H 38.54647445678711 41.745460510253906 39.51797103881836
H 38.17789840698242 40.012001037597656 39.56446838378906
H 39.88309860229492 40.55547332763672 39.708106994628906
C 38.39594650268555 39.57952117919922 37.18217086791992
H 38.244659423828125 38.73554992675781 37.85354232788086
C 37.83960723876953 39.45098114013672 35.95565414428711
H 37.97800064086914 40.25067901611328 35.22953796386719
C 37.17106628417969 38.221832275390625 35.6084098815918
H 37.18518829345703 37.461570739746094 36.387977600097656
C 36.51023864746094 37.89646911621094 34.51850891113281
C 36.391414642333984 38.824119567871094 33.307456970214844
H 36.33681869506836 38.2955322265625 32.353477478027344
H 35.553550720214844 39.518096923828125 33.401512145996094
H 37.29923629760742 39.41326141357422 33.16171646118164
C 35.59290313720703 36.75969696044922 34.574405670166016
H 35.60377883911133 36.12889862060547 35.46204376220703
C 34.61420440673828 36.44221496582031 33.6683349609375
H 34.58274459838867 37.09263610839844 32.79547119140625
C 33.57685470581055 35.376861572265625 33.80949783325195
C 32.76046371459961 35.2646484375 34.89126968383789
C 32.81880187988281 36.14134979248047 36.20927047729492
H 31.824365615844727 36.247772216796875 36.647727966308594
H 33.47943878173828 35.724632263183594 36.97240447998047
H 33.14168930053711 37.17108154296875 36.04235076904297
C 31.813982009887695 34.14068603515625 34.97878646850586
H 30.786476135253906 34.468544006347656 34.80789566040039
H 31.807212829589844 34.05989074707031 36.067771911621094
C 32.18997573852539 32.858482360839844 34.1841926574707
H 31.405838012695312 32.11261749267578 34.330081939697266
H 33.10712432861328 32.480690002441406 34.640899658203125
C 32.35798263549805 33.389915466308594 32.74514389038086
H 32.406036376953125 32.53631591796875 32.06578826904297
H 31.459684371948242 33.91279602050781 32.4102783203125
C 33.45878982543945 34.46327209472656 32.60909652709961
C 34.71753692626953 33.692298889160156 32.386009216308594
H 35.58372116088867 34.341522216796875 32.24214553833008
H 34.89077377319336 33.030738830566406 33.23735427856445
H 34.646724700927734 33.019569396972656 31.528759002685547
C 33.16970443725586 35.16364288330078 31.380760192871094
H 34.104248046875 35.464195251464844 30.9024658203125
H 32.69404220581055 34.56950378417969 30.59768295288086
H 32.57109451293945 36.06549835205078 31.52496337890625
