207
Triad, Carotenoid-Porphyrin-C60
C 53.61741256713867 62.578575134277344 47.35517120361328
C 55.76224136352539 61.95542526245117 53.49102783203125
C 56.78422164916992 61.439632415771484 51.525596618652344
C 56.582645416259766 61.94632339477539 49.169639587402344
C 53.94862747192383 63.4344482421875 54.2702751159668
C 54.50558090209961 62.115657806396484 54.1182746887207
C 55.86520767211914 64.33084869384766 53.17460632324219
C 57.1599006652832 63.671600341796875 50.74025344848633
C 54.09184646606445 64.80896759033203 47.72627639770508
C 54.62602615356445 64.59771728515625 53.849483489990234
C 54.96675491333008 62.68817901611328 47.53062057495117
C 50.96749496459961 64.08108520507812 52.36409378051758
C 52.60098648071289 63.3270263671875 53.940765380859375
C 50.86771774291992 64.61151123046875 50.04695510864258
C 52.6960563659668 66.0097427368164 49.31537628173828
C 51.68010330200195 65.07752990722656 49.008235931396484
C 52.60085678100586 65.540283203125 52.9497184753418
C 55.888423919677734 65.22722625732422 52.12385940551758
C 56.499576568603516 64.8825912475586 50.923194885253906
C 54.8537483215332 66.0531997680664 49.651756286621094
C 53.26016616821289 59.24357223510742 50.69179916381836
C 52.66940689086914 59.88915252685547 51.931358337402344
C 54.72335433959961 59.628440856933594 50.91421890258789
C 54.91751480102539 60.10601043701172 52.252140045166016
C 51.17167282104492 62.878135681152344 48.5469970703125
C 51.5058708190918 60.685489654541016 51.839569091796875
C 55.61484909057617 61.65449523925781 48.235843658447266
C 50.61563491821289 62.742332458496094 52.110740661621094
C 52.27775955200195 61.97779846191406 53.707489013671875
C 50.62466049194336 63.246395111083984 49.73106384277344
C 55.520206451416016 60.157039642333984 49.921817779541016
C 52.07314682006836 65.89533233642578 51.708290100097656
C 52.90089797973633 66.37403869628906 50.63444137573242
C 55.9933967590332 65.29058837890625 49.701602935791016
C 54.755855560302734 66.03543853759766 52.08162307739258
C 52.65670394897461 59.61429977416992 49.31049728393555
C 51.46156692504883 60.64828872680664 49.39915466308594
C 53.6121940612793 60.420082092285156 48.47369384765625
C 51.66411209106445 61.56315612792969 48.38494873046875
C 53.91299819946289 65.8390121459961 48.652626037597656
C 53.694820404052734 60.198944091796875 52.85252380371094
C 54.951168060302734 60.55978012084961 48.683109283447266
C 52.92727279663086 61.43722152709961 47.834861755371094
C 56.55025100708008 61.04970932006836 50.20084762573242
C 51.80424880981445 64.03638458251953 48.109771728515625
C 50.91506576538086 61.06874465942383 50.625526428222656
C 51.307613372802734 61.70412063598633 52.75624084472656
C 55.97214126586914 60.95189666748047 52.574462890625
C 53.4800910949707 61.25979232788086 53.742271423339844
C 54.219844818115234 66.42620086669922 50.84571838378906
C 50.44680404663086 62.328224182128906 50.800987243652344
C 53.05625534057617 63.89794158935547 47.43743133544922
C 56.43410110473633 63.09933853149414 53.037025451660156
C 57.030696868896484 62.752525329589844 51.80043411254883
C 56.846988677978516 63.27879333496094 49.43829345703125
C 55.24392318725586 64.02129364013672 47.79389572143555
C 51.9221076965332 64.37271881103516 53.329586029052734
C 50.989261627197266 65.05598449707031 51.35443115234375
C 56.2195930480957 64.29448699951172 48.726436614990234
C 53.98416519165039 65.60187530517578 53.1558952331543
C 53.0839729309082 57.74543762207031 50.714839935302734
N 52.62165451049805 57.251441955566406 49.65937042236328
C 52.3146858215332 58.26647186279297 48.65605545043945
H 51.308467864990234 58.23644256591797 48.23029708862305
H 53.05171585083008 58.09272384643555 47.86785888671875
C 54.45676040649414 54.9111328125 53.70039749145508
C 53.5274543762207 55.90610122680664 53.971500396728516
H 53.20840835571289 55.95904541015625 55.009273529052734
C 53.10600662231445 56.866886138916016 53.04277038574219
H 52.350894927978516 57.6383056640625 53.17036819458008
C 53.6098518371582 56.7836799621582 51.74728775024414
C 54.90150833129883 54.91727066040039 52.39339065551758
H 55.423091888427734 54.02587127685547 52.054386138916016
C 54.46865463256836 55.8079948425293 51.40776062011719
H 54.761844635009766 55.82517623901367 50.36118698120117
C 54.9791145324707 53.87519454956055 54.73691940307617
C 54.24192428588867 53.87228012084961 56.017208099365234
C 54.095821380615234 54.83455276489258 56.983848571777344
H 54.4962272644043 55.84244155883789 56.951377868652344
C 53.394596099853516 54.27787399291992 58.07791519165039
H 53.20875930786133 54.69820785522461 59.06077575683594
C 52.9281120300293 53.0356330871582 57.70621871948242
N 53.40394973754883 52.829410552978516 56.44722366333008
H 53.2323112487793 52.124061584472656 55.743560791015625
C 52.267459869384766 51.97494125366211 58.40278244018555
H 51.57448196411133 52.41837692260742 59.11627960205078
C 52.23942184448242 50.628883361816406 58.15542984008789
C 51.64133071899414 49.723934173583984 59.025177001953125
H 51.10830307006836 49.98527145385742 59.93336868286133
C 51.962284088134766 48.46476364135742 58.547447204589844
H 51.83832931518555 47.560585021972656 59.13423538208008
C 52.67751693725586 48.66225814819336 57.32973098754883
N 52.8615608215332 49.96593475341797 57.124046325683594
C 53.3160514831543 47.67431640625 56.4312629699707
C 54.54904556274414 47.85647201538086 55.969730377197266
C 55.520572662353516 46.85892105102539 55.790836334228516
H 55.53635787963867 45.86341094970703 56.222042083740234
C 56.59627914428711 47.367286682128906 55.089202880859375
H 57.43870162963867 46.82218933105469 54.67638397216797
C 56.380916595458984 48.77154541015625 54.86371612548828
N 55.13460922241211 48.940391540527344 55.3590202331543
H 54.625545501708984 49.811790466308594 55.298667907714844
C 57.19169235229492 49.69048309326172 54.26741409301758
H 58.16848373413086 49.30360412597656 53.980838775634766
C 56.955440521240234 51.12287139892578 54.0992431640625
C 57.83205032348633 52.09013748168945 53.6212158203125
H 58.87247848510742 52.024200439453125 53.32059097290039
C 57.13723373413086 53.29715347290039 53.764705657958984
H 57.454402923583984 54.303794860839844 53.51311111450195
C 55.9094123840332 52.98200988769531 54.33129119873047
N 55.852108001708984 51.69758987426758 54.576107025146484
C 50.82608413696289 44.319454193115234 54.96522903442383
C 52.10409164428711 44.55280303955078 54.49557876586914
H 52.51467514038086 43.80294418334961 53.82423782348633
C 52.89204788208008 45.65316390991211 54.934024810791016
H 53.83279037475586 45.749629974365234 54.398048400878906
C 52.48109817504883 46.481971740722656 55.950531005859375
C 50.35701370239258 45.19810485839844 55.92402648925781
H 49.33597946166992 44.9764518737793 56.22391891479492
C 51.17036056518555 46.221500396728516 56.45090866088867
H 50.72626876831055 46.82517623901367 57.23826599121094
N 50.09453201293945 43.17129898071289 54.59174728393555
H 49.7846794128418 43.100528717041016 53.63411331176758
C 50.0260124206543 42.100643157958984 55.30790710449219
O 50.36246109008789 42.00377655029297 56.4622917175293
C 49.44700241088867 40.91020202636719 54.51964569091797
C 48.65851974487305 40.97834396362305 53.40254211425781
H 48.420345306396484 41.96807861328125 53.021400451660156
C 48.0421257019043 39.887020111083984 52.77812194824219
C 48.33855056762695 38.62540054321289 53.41500473022461
H 47.74274826049805 37.80691909790039 53.019195556640625
C 49.1673698425293 38.47568893432617 54.495121002197266
H 49.37130355834961 37.49976348876953 54.92818832397461
C 49.73954391479492 39.58361053466797 54.983516693115234
H 50.44041061401367 39.44044876098633 55.801963806152344
C 47.21506118774414 40.0379524230957 51.578590393066406
H 46.96306228637695 41.07374572753906 51.355995178222656
C 46.55833053588867 39.154640197753906 50.793067932128906
H 46.73440933227539 38.10211181640625 51.010101318359375
C 45.7369384765625 39.41691207885742 49.6069450378418
C 45.41758346557617 40.831214904785156 49.21204376220703
H 45.3635139465332 40.76774978637695 48.12322998046875
H 46.276336669921875 41.485145568847656 49.37751770019531
H 44.497840881347656 41.10300827026367 49.734222412109375
C 45.3048095703125 38.38153839111328 48.86412811279297
H 45.58123016357422 37.38504409790039 49.20546340942383
C 44.450660705566406 38.2962760925293 47.71556854248047
H 44.249603271484375 39.187129974365234 47.12237548828125
C 43.85710144042969 37.1755256652832 47.37740707397461
H 44.1104621887207 36.27244567871094 47.93074035644531
C 43.013694763183594 36.929107666015625 46.2789421081543
C 42.158267974853516 38.04436111450195 45.82619857788086
H 41.1358528137207 37.68421173095703 45.69417953491211
H 42.05006408691406 38.744239807128906 46.65742111206055
H 42.4973258972168 38.602195739746094 44.950801849365234
C 42.816864013671875 35.71821212768555 45.72909164428711
H 43.45246505737305 34.9203987121582 46.11044692993164
C 41.98948287963867 35.3775520324707 44.550289154052734
H 41.581844329833984 36.21324157714844 43.98339080810547
C 41.62586975097656 34.11040496826172 44.133575439453125
H 42.005104064941406 33.29975509643555 44.75402069091797
C 40.97208786010742 33.865821838378906 42.91360855102539
H 40.7226448059082 34.7896614074707 42.3937873840332
C 40.530113220214844 32.733097076416016 42.3225212097168
C 40.54694366455078 31.47342872619629 43.13303756713867
H 40.070281982421875 31.664087295532227 44.096832275390625
H 39.877803802490234 30.717153549194336 42.71738815307617
H 41.532470703125 31.088314056396484 43.40302658081055
C 39.85682678222656 32.686729431152344 40.986595153808594
H 39.64170837402344 31.657390594482422 40.70357131958008
C 39.5172233581543 33.65859603881836 40.13664627075195
H 39.86021041870117 34.65673828125 40.40495681762695
C 38.97433090209961 33.60712814331055 38.746063232421875
H 38.829124450683594 32.61225128173828 38.327667236328125
C 38.562740325927734 34.63458251953125 38.01035690307617
C 38.8328742980957 36.018890380859375 38.55522918701172
H 39.90044403076172 36.22212600708008 38.662208557128906
H 38.38240432739258 36.72324752807617 37.85279083251953
H 38.37815856933594 36.128021240234375 39.54204177856445
C 38.04566955566406 34.59454345703125 36.67061996459961
H 38.53525924682617 33.74391555786133 36.198753356933594
C 37.193634033203125 35.53989791870117 36.046852111816406
H 36.71376419067383 36.31301498413086 36.6451301574707
C 36.620994567871094 35.655738830566406 34.680686950683594
C 36.96865463256836 34.80271530151367 33.649898529052734
C 37.64482116699219 33.47560501098633 33.73733139038086
H 37.34513473510742 32.83864974975586 32.902503967285156
H 38.73644256591797 33.450965881347656 33.7521858215332
H 37.384735107421875 33.04977798461914 34.70866394042969
C 36.463768005371094 35.0306510925293 32.23289108276367
H 35.59344482421875 34.408573150634766 32.01375961303711
H 37.208168029785156 34.56489181518555 31.583728790283203
C 36.27962112426758 36.54319381713867 31.90708351135254
H 35.86870193481445 36.616085052490234 30.897972106933594
H 37.183441162109375 37.14967346191406 31.81903839111328
C 35.195594787597656 36.99122619628906 32.88117599487305
H 34.889469146728516 38.001094818115234 32.60025405883789
H 34.29536819458008 36.39642333984375 32.71306228637695
C 35.68284225463867 36.90000915527344 34.352073669433594
C 36.413169860839844 38.20686340332031 34.57527542114258
H 36.772457122802734 38.395999908447266 35.58898162841797
H 37.30244827270508 38.28843688964844 33.94679260253906
H 35.81892013549805 39.086029052734375 34.31759262084961
C 34.37141799926758 36.908992767333984 35.15328598022461
H 33.65843200683594 36.153751373291016 34.81605529785156
H 34.46535110473633 36.608062744140625 36.19879150390625
H 33.837825775146484 37.86069869995117 35.108558654785156
