207
Triad, Carotenoid-Porphyrin-C60
C 59.1474494934082 54.43974304199219 46.50411605834961
C 55.70561218261719 58.96311569213867 43.523738861083984
C 55.5352668762207 58.2812385559082 45.687007904052734
C 56.91550827026367 57.157684326171875 47.2156867980957
C 57.172515869140625 59.05279541015625 41.6075553894043
C 55.944175720214844 58.62282943725586 42.16343307495117
C 57.826019287109375 60.12568283081055 43.71840286254883
C 57.64334487915039 59.23185348510742 46.35616683959961
C 60.71245193481445 56.08274841308594 46.42109298706055
C 58.131290435791016 59.75992965698242 42.37812423706055
C 58.67497253417969 55.50566101074219 47.30983352661133
C 59.46424102783203 56.24468994140625 40.97124099731445
C 57.65235900878906 57.951812744140625 40.863826751708984
C 60.818878173828125 55.10734939575195 42.650211334228516
C 61.67490005493164 56.63046646118164 44.286136627197266
C 61.381919860839844 55.334102630615234 43.849727630615234
C 59.99229049682617 58.35166549682617 41.62749099731445
C 58.98358917236328 60.05727005004883 44.5076789855957
C 58.87621307373047 59.6059455871582 45.83842086791992
C 60.88046646118164 58.28379440307617 45.52743148803711
C 55.04570770263672 54.4306526184082 44.00224685668945
C 55.397701263427734 55.06825256347656 42.60184097290039
C 54.88499069213867 55.774139404296875 44.74471664428711
C 54.798194885253906 56.81053924560547 43.87821578979492
C 59.80076217651367 53.66263198852539 43.9698600769043
C 56.52265930175781 54.67047119140625 41.8660774230957
C 57.31473159790039 55.84099578857422 47.24856948852539
C 58.47350311279297 55.23184585571289 41.074161529541016
C 56.720279693603516 56.923465728759766 40.9514274597168
C 59.84757614135742 54.06947326660156 42.6991081237793
C 55.42205810546875 55.96763610839844 46.02602767944336
C 60.96725845336914 57.50729751586914 42.12324142456055
C 61.42357635498047 57.71304702758789 43.44069290161133
C 59.856651306152344 58.79066467285156 46.40304946899414
C 60.002708435058594 59.603233337402344 43.68626022338867
C 56.124061584472656 53.47686004638672 44.53390121459961
C 57.34730529785156 53.271400451660156 43.73818588256836
C 56.85736083984375 53.96355438232422 45.74087142944336
C 58.5246467590332 53.30599594116211 44.471675872802734
C 61.37677764892578 56.973575592041016 45.59537887573242
C 55.039241790771484 56.39607620239258 42.57597732543945
C 56.448795318603516 55.107261657714844 46.501224517822266
C 58.21992492675781 53.7301025390625 45.728328704833984
C 55.719356536865234 57.20375061035156 46.51933670043945
C 60.73573303222656 54.398433685302734 44.69309616088867
C 57.439231872558594 53.795902252197266 42.444278717041016
C 57.126548767089844 55.586578369140625 41.00424575805664
C 55.0373420715332 58.129573822021484 44.3410758972168
C 55.653717041015625 57.33386993408203 41.7096061706543
C 60.933284759521484 58.719017028808594 44.25178909301758
C 58.70073318481445 54.158817291259766 41.94466781616211
C 60.355289459228516 54.78348159790039 45.99386215209961
C 56.57112503051758 59.79003143310547 44.280094146728516
C 56.50693130493164 59.300594329833984 45.6055793762207
C 57.835968017578125 58.20084762573242 47.26188278198242
C 59.62588882446289 56.543548583984375 47.20186233520508
C 59.02680587768555 57.58053970336914 40.93344497680664
C 60.60434341430664 56.180572509765625 41.759098052978516
C 59.20115280151367 57.90268325805664 47.22159957885742
C 59.488914489746094 59.40575408935547 42.40291976928711
C 53.848609924316406 53.647972106933594 43.87977981567383
N 53.947479248046875 52.512001037597656 44.38837814331055
C 55.35679626464844 52.129249572753906 44.69148635864258
H 55.72929000854492 51.363677978515625 44.00606918334961
H 55.36362075805664 51.70761489868164 45.69986343383789
C 49.87352752685547 54.9737663269043 42.34782028198242
C 50.73125076293945 54.11766052246094 41.56023025512695
H 50.40618133544922 53.74641799926758 40.5916862487793
C 51.97392654418945 53.596595764160156 42.11772537231445
H 52.579689025878906 52.896934509277344 41.54755783081055
C 52.494937896728516 54.118770599365234 43.321163177490234
C 50.332149505615234 55.30458450317383 43.60457229614258
H 49.65012741088867 55.974517822265625 44.12187576293945
C 51.63711929321289 54.951332092285156 44.077945709228516
H 52.00627899169922 55.28634262084961 45.04389572143555
C 48.523345947265625 55.38097381591797 41.76871871948242
C 48.08079528808594 54.69453048706055 40.590763092041016
C 48.51390838623047 54.71382522583008 39.33823013305664
H 49.3165168762207 55.3470573425293 38.97482681274414
C 47.71061325073242 53.91080856323242 38.48537826538086
H 47.807003021240234 53.79736328125 37.410640716552734
C 46.76518630981445 53.34060287475586 39.32955551147461
N 47.11961364746094 53.69888687133789 40.6100959777832
H 46.602848052978516 53.423526763916016 41.434268951416016
C 45.56700897216797 52.63026809692383 39.01419448852539
H 45.28419876098633 52.727848052978516 37.96709442138672
C 44.411598205566406 52.48101806640625 39.72915267944336
C 43.263641357421875 51.85683822631836 39.15511703491211
H 43.0999870300293 51.66315841674805 38.100154876708984
C 42.34563446044922 51.92722702026367 40.13980484008789
H 41.311824798583984 51.621315002441406 40.017818450927734
C 43.008907318115234 52.437313079833984 41.38520431518555
N 44.21510696411133 52.77771759033203 41.039981842041016
C 42.458473205566406 52.70471954345703 42.690731048583984
C 42.59312438964844 53.948936462402344 43.2614860534668
C 41.58180618286133 54.80588912963867 43.91567611694336
H 40.543392181396484 54.621559143066406 44.17051315307617
C 42.235103607177734 56.006553649902344 44.25932693481445
H 41.8973503112793 56.88102340698242 44.80562973022461
C 43.593265533447266 55.86445236206055 43.923526763916016
N 43.69377517700195 54.69402313232422 43.29240036010742
H 44.559940338134766 54.3475227355957 42.902767181396484
C 44.52999496459961 56.82099533081055 43.93832015991211
H 44.37759017944336 57.83518981933594 44.30453109741211
C 45.866050720214844 56.83357238769531 43.39535140991211
C 46.73779296875 57.856689453125 43.30324935913086
H 46.52500915527344 58.86784744262695 43.634159088134766
C 47.88296890258789 57.44081497192383 42.64619064331055
H 48.8056755065918 57.94319152832031 42.37516403198242
C 47.69754409790039 56.12494659423828 42.48928451538086
N 46.45071029663086 55.749473571777344 42.82686233520508
C 40.03846740722656 49.675437927246094 44.79155349731445
C 40.26060485839844 50.925636291503906 45.308956146240234
H 40.02158737182617 51.103328704833984 46.3543586730957
C 41.10125732421875 51.87364959716797 44.66256332397461
H 41.3795166015625 52.75387954711914 45.236446380615234
C 41.63398742675781 51.646053314208984 43.373043060302734
C 40.59579849243164 49.395713806152344 43.54726028442383
H 40.422245025634766 48.405975341796875 43.132694244384766
C 41.36248016357422 50.36977005004883 42.863407135009766
H 41.842872619628906 50.076744079589844 41.93339920043945
N 39.34212112426758 48.70380783081055 45.51316452026367
H 39.41537094116211 48.81614685058594 46.51321029663086
C 38.43793869018555 47.850582122802734 45.04530715942383
O 38.192420959472656 47.81711196899414 43.8544807434082
C 37.63345718383789 47.114768981933594 46.06682205200195
C 38.280303955078125 46.430992126464844 47.10829544067383
H 39.363948822021484 46.5135498046875 47.12984085083008
C 37.549930572509766 45.728485107421875 48.00410842895508
C 36.143741607666016 45.77644729614258 47.97555160522461
H 35.61383819580078 45.178707122802734 48.7127571105957
C 35.476585388183594 46.47471237182617 47.00233840942383
H 34.390968322753906 46.5250358581543 46.98056411743164
C 36.249996185302734 47.17630386352539 46.093387603759766
H 35.63454818725586 47.69328689575195 45.36159896850586
C 38.22671127319336 44.964752197265625 49.068782806396484
H 39.310279846191406 44.9713134765625 48.960330963134766
C 37.68805694580078 44.26718521118164 50.07209396362305
H 36.61275863647461 44.240478515625 50.24223709106445
C 38.44375228881836 43.55305480957031 51.05520248413086
C 37.66717529296875 43.38283157348633 52.35648727416992
H 38.31005096435547 43.81890106201172 53.123966217041016
H 37.65548324584961 42.32122802734375 52.61207962036133
H 36.73617172241211 43.93682861328125 52.493534088134766
C 39.7020378112793 43.17588806152344 50.9764289855957
H 40.147239685058594 43.37080764770508 50.001895904541016
C 40.48198318481445 42.57617950439453 52.002079010009766
H 40.032752990722656 42.36601638793945 52.97159194946289
C 41.68983840942383 42.164344787597656 51.770870208740234
H 42.12235641479492 42.38355255126953 50.795780181884766
C 42.57316589355469 41.47574996948242 52.65018081665039
C 43.993350982666016 41.40713882446289 52.26314926147461
H 44.67225646972656 41.80109786987305 53.0223274230957
H 44.288761138916016 40.369991302490234 52.0913200378418
H 44.2363166809082 41.979644775390625 51.36555099487305
C 42.263553619384766 40.858245849609375 53.7877082824707
H 41.223388671875 40.903594970703125 54.10696792602539
C 43.12360382080078 40.18959426879883 54.69679641723633
H 44.17332458496094 40.46209716796875 54.59805679321289
C 42.66223907470703 39.35160827636719 55.643245697021484
H 41.638572692871094 38.99444580078125 55.540950775146484
C 43.39643478393555 38.84764099121094 56.82332992553711
H 44.34709167480469 39.31058120727539 57.08383560180664
C 42.926422119140625 37.96184539794922 57.7105827331543
C 41.545108795166016 37.48358154296875 57.700252532958984
H 40.89801788330078 38.14581298828125 58.27920913696289
H 41.1297721862793 37.4377555847168 56.69135665893555
H 41.46283721923828 36.42951965332031 57.97346878051758
C 43.69606399536133 37.61615753173828 58.94900894165039
H 43.13846969604492 37.20084762573242 59.78718185424805
C 45.02817916870117 37.6993522644043 59.10441207885742
H 45.71609115600586 37.99417495727539 58.313350677490234
C 45.64977264404297 37.152252197265625 60.25504684448242
H 45.129878997802734 36.99040603637695 61.19814682006836
C 46.891136169433594 36.74979019165039 60.30620193481445
C 47.82876205444336 36.968055725097656 59.17244338989258
H 47.79267501831055 37.97028732299805 58.7403678894043
H 48.8665885925293 36.75151443481445 59.43413162231445
H 47.5617561340332 36.224822998046875 58.41826248168945
C 47.445858001708984 36.1824836730957 61.52853012084961
H 46.92536544799805 36.47360610961914 62.43971633911133
C 48.47184371948242 35.34901428222656 61.7582893371582
H 49.0662956237793 35.03297424316406 60.9023323059082
C 49.04343032836914 34.83698654174805 63.05080032348633
C 49.321693420410156 35.684444427490234 64.0654296875
C 49.04661560058594 37.24722671508789 64.01485443115234
H 47.99099349975586 37.49370193481445 63.88303756713867
H 49.48359298706055 37.90615463256836 64.76806640625
H 49.55840301513672 37.670345306396484 63.147953033447266
C 50.045658111572266 35.28224563598633 65.34961700439453
H 49.269065856933594 35.481414794921875 66.09103393554688
H 50.83646011352539 36.01964569091797 65.50238800048828
C 50.50678253173828 33.864967346191406 65.42736053466797
H 50.719120025634766 33.405189514160156 66.39482116699219
H 51.50949478149414 33.86033248901367 64.99491119384766
C 49.56407165527344 33.009029388427734 64.58839416503906
H 49.972084045410156 31.99705696105957 64.63199615478516
H 48.541290283203125 33.04804611206055 64.96900177001953
C 49.53529739379883 33.38331604003906 63.09798812866211
C 50.92966842651367 33.13890838623047 62.41182327270508
H 51.276790618896484 32.131263732910156 62.64975357055664
H 50.83251190185547 33.3143196105957 61.3383903503418
H 51.66239929199219 33.83889389038086 62.81875228881836
C 48.626380920410156 32.48874282836914 62.383419036865234
H 48.778812408447266 31.416725158691406 62.5248908996582
H 47.60841751098633 32.723445892333984 62.7014274597168
H 48.65610885620117 32.583099365234375 61.2959098815918
