207
Triad, Carotenoid-Porphyrin-C60
C 64.77115631103516 44.35625076293945 51.35731887817383
C 59.14838409423828 46.87494659423828 53.124107360839844
C 60.73256301879883 45.826690673828125 54.37788009643555
C 63.069461822509766 45.299217224121094 54.335941314697266
C 58.99125671386719 47.95223617553711 50.99656295776367
C 58.646385192871094 46.88671875 51.846580505371094
C 60.4351806640625 48.922767639160156 52.70457458496094
C 62.36385726928711 47.589019775390625 54.2346076965332
C 65.41511535644531 46.47819900512695 51.23915481567383
C 59.94158935546875 48.91798782348633 51.37498474121094
C 64.67427825927734 44.85913848876953 52.62609100341797
C 60.79069137573242 46.919979095458984 48.016448974609375
C 59.13259506225586 47.376792907714844 49.72147750854492
C 63.16393280029297 46.400455474853516 47.95001983642578
C 64.45499420166016 47.75267028808594 49.415428161621094
C 64.32744598388672 46.5971794128418 48.671504974365234
C 60.985572814941406 48.79682159423828 49.21198272705078
C 61.780948638916016 49.298831939697266 52.59614562988281
C 62.72035217285156 48.609535217285156 53.35845947265625
C 64.3250732421875 48.67407989501953 51.501197814941406
C 60.4610710144043 42.647396087646484 51.63175582885742
C 59.5496826171875 43.5133056640625 50.78250503540039
C 60.49367141723633 43.46338653564453 52.91074752807617
C 59.539859771728516 44.47185134887695 52.84360885620117
C 63.73927688598633 44.45692443847656 48.77605056762695
C 59.86428451538086 43.84905242919922 49.499420166015625
C 63.752967834472656 44.40576934814453 53.55133819580078
C 60.44735336303711 45.54290771484375 48.10843276977539
C 58.83392333984375 46.02798843383789 49.845001220703125
C 62.8182258605957 45.089874267578125 48.035247802734375
C 61.61931228637695 43.67688751220703 53.707698822021484
C 62.25286102294922 48.50851821899414 48.68796157836914
C 63.41992950439453 48.68764114379883 49.46124267578125
C 63.98942184448242 48.2582893371582 52.809505462646484
C 62.065975189208984 49.62964630126953 51.22250747680664
C 61.819156646728516 42.28848648071289 50.95585250854492
C 62.13047409057617 42.87858200073242 49.62464904785156
C 62.97751235961914 42.82001876831055 51.84403991699219
C 63.397708892822266 43.40351486206055 49.6385383605957
C 65.04659271240234 47.748016357421875 50.68436813354492
C 58.96895980834961 44.474090576171875 51.61299133300781
C 62.83197784423828 43.40801239013672 53.11301803588867
C 63.86504364013672 43.38133239746094 50.93389129638672
C 61.7154655456543 44.903133392333984 54.39157485961914
C 64.6957015991211 45.36296081542969 49.19024658203125
C 61.12771224975586 43.590763092041016 48.93980407714844
C 59.45719528198242 45.11857604980469 49.003658294677734
C 59.62599563598633 45.63983154296875 53.63547134399414
C 58.562843322753906 45.740596771240234 51.1404914855957
C 63.358734130859375 49.289859771728516 50.71738815307617
C 61.478431701660156 44.61894226074219 48.053226470947266
C 65.21804809570312 45.29698944091797 50.47273635864258
C 60.0165901184082 47.846187591552734 53.5803337097168
C 61.01140213012695 47.17143630981445 54.35799789428711
C 63.41689682006836 46.656463623046875 54.303932189941406
C 65.11260986328125 46.16368865966797 52.60765075683594
C 60.11436462402344 47.785152435302734 48.79873275756836
C 62.111572265625 47.36659622192383 47.95425033569336
C 64.43710327148438 47.10276794433594 53.39313507080078
C 60.90797424316406 49.37237548828125 50.5005989074707
C 59.81396484375 41.32258224487305 51.82434844970703
N 60.52946472167969 40.354957580566406 51.45619201660156
C 61.857601165771484 40.704002380371094 50.93362808227539
H 61.961090087890625 40.4295654296875 49.88071823120117
H 62.62984848022461 40.19252395629883 51.51386260986328
C 55.70131301879883 41.11642074584961 52.78559875488281
C 56.662357330322266 41.021602630615234 53.77720260620117
H 56.34410095214844 40.87763595581055 54.806549072265625
C 58.028228759765625 40.95330047607422 53.52400588989258
H 58.765647888183594 40.92415237426758 54.322086334228516
C 58.41847610473633 41.11964416503906 52.1981086730957
C 56.1113395690918 41.39234161376953 51.51121520996094
H 55.374542236328125 41.53712844848633 50.72525405883789
C 57.44697570800781 41.279266357421875 51.20365905761719
H 57.80067825317383 41.337249755859375 50.17744827270508
C 54.21815872192383 41.09774398803711 53.090599060058594
C 53.747596740722656 41.14372253417969 54.4776725769043
C 53.881446838378906 40.2170295715332 55.504947662353516
H 54.505123138427734 39.33201217651367 55.575645446777344
C 53.24394226074219 40.775390625 56.68092727661133
H 53.35272979736328 40.334228515625 57.66620635986328
C 52.45191955566406 41.848628997802734 56.28797149658203
N 52.82339859008789 42.07658004760742 54.97526168823242
H 52.519779205322266 42.82350158691406 54.36530303955078
C 51.55460739135742 42.75729751586914 56.96959686279297
H 51.45234680175781 42.5938835144043 58.04140090942383
C 50.94981384277344 43.89927291870117 56.42369079589844
C 51.19701385498047 45.20697021484375 57.00300216674805
H 51.62765121459961 45.46009826660156 57.9661750793457
C 50.51516342163086 46.04074478149414 56.095359802246094
H 50.47031784057617 47.11880111694336 56.20942687988281
C 49.86647415161133 45.22138214111328 55.117881774902344
N 50.129051208496094 43.91093826293945 55.26518630981445
C 49.13212585449219 45.657012939453125 53.93345260620117
C 49.047523498535156 44.880611419677734 52.774410247802734
C 48.04890823364258 44.80754089355469 51.77833557128906
H 47.12353515625 45.374027252197266 51.780147552490234
C 48.41507339477539 43.9298095703125 50.73452377319336
H 48.004417419433594 43.69305419921875 49.758544921875
C 49.58563232421875 43.25864028930664 51.16680908203125
N 49.9493408203125 43.96945571899414 52.286521911621094
H 50.74791717529297 43.63877487182617 52.810970306396484
C 50.267887115478516 42.27550506591797 50.58251953125
H 49.81552505493164 41.940879821777344 49.650146484375
C 51.476051330566406 41.59206771850586 50.95973205566406
C 52.126487731933594 40.46215057373047 50.43031311035156
H 51.82244873046875 39.90327072143555 49.551422119140625
C 53.298980712890625 40.233219146728516 51.13029861450195
H 54.09185028076172 39.50730514526367 50.98321533203125
C 53.29611587524414 41.24296951293945 52.04895782470703
N 52.139495849609375 41.96418762207031 52.040771484375
C 46.662841796875 49.25440979003906 54.02349853515625
C 47.03097915649414 48.74465560913086 52.81047439575195
H 46.656673431396484 49.18426513671875 51.88949203491211
C 47.86690902709961 47.57769775390625 52.77122116088867
H 48.350738525390625 47.18722915649414 51.87958908081055
C 48.30204772949219 46.952980041503906 53.94701385498047
C 47.001182556152344 48.61561584472656 55.18011474609375
H 46.79345703125 49.155029296875 56.10068893432617
C 47.84428405761719 47.488037109375 55.177555084228516
H 48.13706970214844 47.02405548095703 56.115943908691406
N 45.902889251708984 50.47068405151367 54.12028503417969
H 45.13156509399414 50.418094635009766 53.471923828125
C 46.13962173461914 51.574649810791016 54.87165069580078
O 47.131248474121094 51.62588882446289 55.57696533203125
C 45.11980438232422 52.65987777709961 54.832000732421875
C 44.254302978515625 52.74920654296875 53.71803283691406
H 44.402462005615234 52.09778594970703 52.86055374145508
C 43.23454666137695 53.72150421142578 53.73428726196289
C 43.1411018371582 54.55641174316406 54.85508346557617
H 42.312740325927734 55.2598991394043 54.87712478637695
C 44.01698303222656 54.543975830078125 55.927154541015625
H 43.921478271484375 55.28657150268555 56.7151985168457
C 44.99167251586914 53.60905456542969 55.8768424987793
H 45.52556228637695 53.38129425048828 56.7958984375
C 42.390899658203125 53.80988311767578 52.580787658691406
H 42.633113861083984 53.066001892089844 51.8232307434082
C 41.41344451904297 54.751285552978516 52.310630798339844
H 41.062923431396484 55.49495315551758 53.0247917175293
C 40.61396408081055 54.87183380126953 51.09176254272461
C 39.84878158569336 56.158260345458984 50.8802490234375
H 38.7689323425293 56.05996322631836 50.75094223022461
H 40.261993408203125 56.682132720947266 50.01579666137695
H 39.783966064453125 56.761329650878906 51.78831100463867
C 40.69663619995117 53.97426986694336 50.08427047729492
H 41.255672454833984 53.060142517089844 50.27861785888672
C 39.99650955200195 54.06095504760742 48.81562042236328
H 39.406036376953125 54.97027587890625 48.71367263793945
C 40.07700729370117 53.13176727294922 47.85126876831055
H 40.82497024536133 52.36097717285156 48.031150817871094
C 39.428016662597656 53.14350509643555 46.506858825683594
C 39.12599182128906 51.84569549560547 45.811553955078125
H 39.773048400878906 51.02519989013672 46.128684997558594
H 38.146793365478516 51.54363250732422 46.188907623291016
H 39.067604064941406 51.891292572021484 44.722068786621094
C 38.795387268066406 54.27003860473633 46.09275817871094
H 38.9412727355957 55.14463424682617 46.72499465942383
C 37.934967041015625 54.44137191772461 44.933406829833984
H 37.656436920166016 53.574256896972656 44.33636474609375
C 37.38083267211914 55.57920455932617 44.639442443847656
H 37.71380615234375 56.42906188964844 45.2334098815918
C 36.56193923950195 55.79987716674805 43.49138259887695
H 36.29890823364258 54.86485290527344 42.99897384643555
C 36.07845687866211 56.89482116699219 42.87262725830078
C 36.422019958496094 58.22016906738281 43.46980667114258
H 35.686676025390625 58.43505096435547 44.247982025146484
H 37.45009231567383 58.16368865966797 43.833595275878906
H 36.26588821411133 58.99348449707031 42.714778900146484
C 35.34553527832031 56.85017395019531 41.59234619140625
H 35.15166473388672 57.8177604675293 41.13179016113281
C 34.82029724121094 55.72092819213867 41.01639175415039
H 35.05680465698242 54.753543853759766 41.45701599121094
C 34.042625427246094 55.823238372802734 39.76826477050781
H 34.042236328125 56.794288635253906 39.275333404541016
C 33.36374282836914 54.86355972290039 39.1434440612793
C 33.29941177368164 53.50143051147461 39.719398498535156
H 32.42647171020508 52.867496490478516 39.5504035949707
H 34.13707733154297 52.933895111083984 39.30868911743164
H 33.37976837158203 53.664695739746094 40.79612731933594
C 32.85078811645508 55.108943939208984 37.815765380859375
H 33.12215042114258 56.059722900390625 37.3593635559082
C 32.16563034057617 54.1808967590332 37.03844451904297
H 31.846399307250977 53.281681060791016 37.56325149536133
C 31.476999282836914 54.41275405883789 35.74991989135742
C 30.909006118774414 55.604888916015625 35.425323486328125
C 30.817537307739258 56.7948112487793 36.3319091796875
H 29.868919372558594 57.30934143066406 36.165042877197266
H 30.873567581176758 56.6669807434082 37.414955139160156
H 31.6296443939209 57.47899627685547 36.077266693115234
C 30.147794723510742 55.88402557373047 34.14493179321289
H 30.212881088256836 56.94221878051758 33.88329315185547
H 29.092103958129883 55.722381591796875 34.37265396118164
C 30.627674102783203 54.89750289916992 33.02538299560547
H 31.653165817260742 55.15355682373047 32.75103759765625
H 29.922204971313477 54.94888687133789 32.19343185424805
C 30.632707595825195 53.451839447021484 33.609798431396484
H 29.6097469329834 53.14754104614258 33.84092712402344
H 30.876718521118164 52.72872543334961 32.82875442504883
C 31.521759033203125 53.17940902709961 34.85082244873047
C 30.98331642150879 51.88880920410156 35.5781364440918
H 30.01001739501953 51.98904037475586 36.06300735473633
H 31.015134811401367 51.00138473510742 34.94258499145508
H 31.704586029052734 51.57863235473633 36.33709716796875
C 32.87861251831055 52.780128479003906 34.412349700927734
H 32.87733459472656 51.76628875732422 34.00665283203125
H 33.30159378051758 53.40821838378906 33.62554931640625
H 33.51408767700195 52.93967056274414 35.28594970703125
