207
Triad, Carotenoid-Porphyrin-C60
C 36.40845489501953 59.46955108642578 41.662879943847656
C 36.91133117675781 56.567665100097656 47.49964141845703
C 37.21826171875 58.72271728515625 46.84244155883789
C 36.562469482421875 60.303627014160156 45.10700988769531
C 35.807281494140625 54.675445556640625 46.551021575927734
C 36.98127746582031 55.274253845214844 46.990516662597656
C 34.53374481201172 56.56053161621094 47.116329193115234
C 34.830177307128906 59.268714904785156 46.4794921875
C 34.24053955078125 59.177833557128906 42.14762878417969
C 34.55400085449219 55.25281524658203 46.60610580444336
C 36.11528015136719 60.265525817871094 42.78083801269531
C 35.63477325439453 53.73542785644531 43.08530044555664
C 36.1322021484375 53.8416748046875 45.415428161621094
C 35.05602264404297 55.35340881347656 41.32687759399414
C 33.35467529296875 56.91645050048828 41.97153854370117
C 34.37501525878906 56.54954528808594 41.13447189331055
C 33.9678955078125 54.264617919921875 44.43650817871094
C 33.582244873046875 57.22608947753906 46.4110107421875
C 33.715003967285156 58.58983612060547 46.0888557434082
C 32.90581512451172 58.16394805908203 43.86201095581055
C 39.972557067871094 57.362998962402344 44.051300048828125
C 39.46311950683594 55.85838317871094 44.38802719116211
C 39.267921447753906 58.100791931152344 45.12574005126953
C 38.81329345703125 57.19529724121094 46.10465621948242
C 36.57304382324219 56.906532287597656 40.75401306152344
C 38.84917449951172 55.044158935546875 43.406158447265625
C 37.04779815673828 60.44471740722656 43.82590866088867
C 36.99494934082031 53.973594665527344 42.79819107055664
C 37.53215026855469 53.927284240722656 45.183380126953125
C 36.408790588378906 55.540748596191406 40.98698806762695
C 38.65563201904297 59.32069396972656 44.998897552490234
C 33.70307922363281 54.833457946777344 43.18684005737305
C 32.987388610839844 56.02686309814453 43.02119445800781
C 33.40576171875 59.017982482910156 44.80268478393555
C 33.070518493652344 56.35627746582031 45.44623947143555
C 39.59960174560547 57.799041748046875 42.60948181152344
C 38.78394317626953 56.84368896484375 41.736873626708984
C 38.55689239501953 59.007659912109375 42.56298828125
C 37.7275390625 57.542724609375 41.19502639770508
C 33.27167510986328 58.19951629638672 42.49341583251953
C 38.903717041015625 55.87364959716797 45.653594970703125
C 38.24852752685547 59.749183654785156 43.74785614013672
C 37.63954162597656 58.84562683105469 41.58491897583008
C 37.55677795410156 59.61778259277344 45.87862777709961
C 35.32361602783203 57.48217010498047 40.836299896240234
C 38.54907989501953 55.514488220214844 42.1610107421875
C 37.89812469482422 54.13977813720703 43.847251892089844
C 37.82933807373047 57.502418518066406 47.028602600097656
C 37.98332214355469 54.90087127685547 46.07566452026367
C 32.755577087402344 56.823272705078125 44.18280792236328
C 37.34284210205078 54.852516174316406 41.77254867553711
C 35.25022888183594 58.8173828125 41.26874923706055
C 35.679443359375 57.217994689941406 47.56005859375
C 35.873252868652344 58.55036926269531 47.146324157714844
C 35.18224334716797 60.117332458496094 45.41925048828125
C 34.76898956298828 60.0850830078125 43.064247131347656
C 35.20123291015625 53.70436096191406 44.40681457519531
C 34.6781005859375 54.4710693359375 42.30564498901367
C 34.29737091064453 59.996551513671875 44.40003967285156
C 33.704078674316406 55.13744354248047 45.5287971496582
C 41.484703063964844 57.64491271972656 44.14644241333008
N 41.99260711669922 57.99183654785156 43.06940841674805
C 40.946807861328125 58.30162048339844 41.998863220214844
H 41.177398681640625 57.711151123046875 41.10845947265625
H 40.9722900390625 59.35694885253906 41.71553039550781
C 43.898765563964844 57.2064208984375 47.7174072265625
C 43.019378662109375 56.2069091796875 47.34934616088867
H 42.860687255859375 55.366493225097656 48.020225524902344
C 42.19501495361328 56.33588409423828 46.21003723144531
H 41.5911865234375 55.48033905029297 45.9184684753418
C 42.314613342285156 57.438690185546875 45.353416442871094
C 43.995849609375 58.31536865234375 46.914493560791016
H 44.75062561035156 59.06890869140625 47.12437438964844
C 43.22002410888672 58.476661682128906 45.70854949951172
H 43.35009002685547 59.314720153808594 45.02861404418945
C 44.870567321777344 56.975181579589844 48.86265182495117
C 44.87969970703125 55.6744384765625 49.578521728515625
C 43.96283721923828 55.048583984375 50.42002487182617
H 42.94395446777344 55.4144287109375 50.492591857910156
C 44.46044158935547 53.84514617919922 50.94593811035156
H 43.88019561767578 53.212303161621094 51.60930252075195
C 45.75178527832031 53.78001403808594 50.54877853393555
N 46.00518035888672 54.89448547363281 49.739009857177734
H 46.8404541015625 55.228919982910156 49.27791976928711
C 46.70631408691406 52.76731872558594 50.84982681274414
H 46.246917724609375 51.97138214111328 51.43408966064453
C 48.059661865234375 52.77532196044922 50.580387115478516
C 48.63609313964844 51.75043487548828 49.77545166015625
H 48.058868408203125 50.94855499267578 49.32709503173828
C 49.817901611328125 52.30143737792969 49.44989776611328
H 50.52705383300781 52.03478240966797 48.67322540283203
C 50.08148193359375 53.47636413574219 50.249305725097656
N 48.891937255859375 53.81927490234375 50.876556396484375
C 51.17900848388672 54.41419219970703 50.150413513183594
C 51.10118865966797 55.81501770019531 50.18858337402344
C 51.91717529296875 56.684715270996094 50.89164733886719
H 52.723793029785156 56.25067901611328 51.47320556640625
C 51.36376190185547 57.90081787109375 50.95934295654297
H 51.6959228515625 58.8414306640625 51.38614273071289
C 50.07554626464844 57.86427307128906 50.36396026611328
N 50.03507995605469 56.614906311035156 49.87507629394531
H 49.216827392578125 56.151954650878906 49.50325393676758
C 49.1156005859375 58.84251403808594 50.245426177978516
H 49.47969055175781 59.772682189941406 50.67919158935547
C 47.72296905517578 58.78258514404297 49.81830978393555
C 46.76367950439453 59.825286865234375 49.802711486816406
H 46.96394348144531 60.84642791748047 50.10993957519531
C 45.567527770996094 59.275177001953125 49.38774871826172
H 44.59001922607422 59.74395751953125 49.34364318847656
C 45.87713623046875 57.91313934326172 49.17520523071289
N 47.17292022705078 57.63971710205078 49.416629791259766
C 55.18748474121094 52.616783142089844 49.83335494995117
C 54.970703125 53.93724822998047 49.62923049926758
H 55.794036865234375 54.590545654296875 49.35194396972656
C 53.750732421875 54.59294128417969 49.75315475463867
H 53.78181457519531 55.65464782714844 49.5221061706543
C 52.58708190917969 53.815773010253906 50.04648971557617
C 54.061614990234375 51.855796813964844 50.194400787353516
H 54.182716369628906 50.829200744628906 50.53058624267578
C 52.79914093017578 52.46281433105469 50.24201202392578
H 51.997894287109375 51.81182861328125 50.5822868347168
N 56.45252990722656 51.97962951660156 49.64481735229492
H 56.33415222167969 51.02020263671875 49.355709075927734
C 57.69518280029297 52.50031280517578 50.0476188659668
O 57.79156494140625 53.580047607421875 50.60786819458008
C 58.912498474121094 51.63685607910156 49.79299545288086
C 58.96226501464844 50.395599365234375 50.27638244628906
H 58.10236358642578 49.90880584716797 50.72934341430664
C 60.12065124511719 49.62522888183594 50.131500244140625
C 61.2213134765625 50.166847229003906 49.55558395385742
H 62.15229034423828 49.636268615722656 49.372962951660156
C 61.246490478515625 51.486419677734375 49.24553680419922
H 62.16168212890625 51.90507507324219 48.83478546142578
C 60.088226318359375 52.22404479980469 49.3396110534668
H 59.97203063964844 53.254547119140625 49.01384735107422
C 60.0625 48.27185821533203 50.582069396972656
H 59.02528381347656 48.09107971191406 50.860313415527344
C 61.000404357910156 47.317893981933594 50.52769088745117
H 62.01439666748047 47.5509033203125 50.206058502197266
C 60.87458801269531 45.92781066894531 50.926963806152344
C 62.162330627441406 45.142425537109375 51.054405212402344
H 63.10387420654297 45.66912841796875 50.885467529296875
H 62.137855529785156 44.355133056640625 50.298072814941406
H 62.131134033203125 44.657936096191406 52.03254699707031
C 59.72644805908203 45.26136016845703 50.939395904541016
H 58.832664489746094 45.789031982421875 50.60978317260742
C 59.41542053222656 43.870765686035156 51.11652755737305
H 60.300201416015625 43.242897033691406 51.21073532104492
C 58.15093994140625 43.424407958984375 51.095947265625
H 57.373252868652344 44.145591735839844 50.84891891479492
C 57.58927917480469 42.05206298828125 51.25852966308594
C 56.100921630859375 41.975738525390625 51.11936569213867
H 55.54338836669922 42.872703552246094 50.84175491333008
H 55.89641571044922 41.165313720703125 50.4166259765625
H 55.760581970214844 41.73686218261719 52.12910461425781
C 58.42848205566406 41.018821716308594 51.45084762573242
H 59.45747375488281 41.364036560058594 51.36186981201172
C 58.22886657714844 39.51518249511719 51.514610290527344
H 57.16987609863281 39.269142150878906 51.451900482177734
C 59.21466064453125 38.55461120605469 51.729801177978516
H 60.19013977050781 38.99629211425781 51.928001403808594
C 58.95830535888672 37.12373352050781 51.7923698425293
H 57.94683837890625 36.93543243408203 51.43541717529297
C 59.75452423095703 36.11833953857422 52.16983413696289
C 61.12549591064453 36.230125427246094 52.69004821777344
H 61.075965881347656 36.46614074707031 53.75508117675781
H 61.76813507080078 35.399314880371094 52.39130783081055
H 61.62407684326172 37.05175018310547 52.171573638916016
C 59.321678161621094 34.74878692626953 52.22654342651367
H 60.00801086425781 33.94818878173828 52.498409271240234
C 57.998146057128906 34.315155029296875 52.09169006347656
H 57.184356689453125 35.03429412841797 52.01103973388672
C 57.665122985839844 32.92317199707031 52.21339797973633
H 58.55206298828125 32.32478332519531 52.41633987426758
C 56.49390411376953 32.31098175048828 52.046321868896484
C 55.25172424316406 33.08958435058594 51.58357620239258
H 54.521995544433594 32.34709930419922 51.25389862060547
H 54.87913513183594 33.738990783691406 52.37850570678711
H 55.497589111328125 33.63805389404297 50.671875
C 56.231773376464844 30.861557006835938 52.22421646118164
H 55.15821838378906 30.69487762451172 52.29923629760742
C 57.128387451171875 29.797096252441406 52.37054443359375
H 58.1644287109375 30.126853942871094 52.43212127685547
C 56.80046081542969 28.366958618164062 52.68312072753906
C 55.59846496582031 27.82042694091797 52.36455535888672
C 54.477996826171875 28.39977264404297 51.53862762451172
H 53.71185302734375 28.922393798828125 52.1151237487793
H 54.96599578857422 29.02037811279297 50.78419876098633
H 54.02259826660156 27.66259765625 50.87405776977539
C 55.286888122558594 26.408523559570312 52.740386962890625
H 55.56806182861328 25.683395385742188 51.973838806152344
H 54.203224182128906 26.407440185546875 52.87504577636719
C 56.002220153808594 25.78221893310547 53.935611724853516
H 55.86494445800781 24.70616912841797 54.06105422973633
H 55.63367462158203 26.21784210205078 54.866668701171875
C 57.49256134033203 26.162086486816406 53.681636810302734
H 58.14971923828125 25.640274047851562 54.380435943603516
H 57.84685516357422 25.73418426513672 52.74150848388672
C 57.79943084716797 27.671035766601562 53.6076545715332
C 57.876739501953125 28.326797485351562 55.01619338989258
H 58.71528625488281 27.858062744140625 55.5354118347168
H 58.224647521972656 29.36133575439453 54.98257827758789
H 56.97161865234375 28.216873168945312 55.61714172363281
C 59.330360412597656 27.706954956054688 53.260746002197266
H 59.48052215576172 27.386795043945312 52.22758865356445
H 59.71106719970703 28.70562744140625 53.48477554321289
H 59.856529235839844 26.9940185546875 53.898963928222656
