207
Triad, Carotenoid-Porphyrin-C60
C 39.15788650512695 53.97544479370117 55.99675369262695
C 44.72433090209961 50.654422760009766 56.21366500854492
C 43.16231155395508 50.953304290771484 57.754459381103516
C 40.89685821533203 51.64669418334961 58.03618240356445
C 44.80224609375 50.8075065612793 53.7313117980957
C 45.255104064941406 51.23026657104492 55.04117965698242
C 43.31391143798828 49.23984909057617 54.78596115112305
C 41.43274688720703 49.59760665893555 56.86117172241211
C 38.505882263183594 52.250118255615234 54.802188873291016
C 43.87521743774414 49.80647659301758 53.59786605834961
C 39.18976974487305 52.941402435302734 56.8655891418457
C 43.107444763183594 53.24684524536133 51.80327224731445
C 44.735992431640625 51.91102981567383 52.91281509399414
C 40.73959732055664 53.867855072021484 51.99663162231445
C 39.393165588378906 51.97286605834961 52.58944320678711
C 39.581844329833984 53.36528396606445 52.5318489074707
C 42.73393630981445 51.01052474975586 51.84273147583008
C 41.96918869018555 49.07620620727539 54.57838821411133
C 40.98369216918945 49.187808990478516 55.579166412353516
C 39.526336669921875 50.21492385864258 53.9675407409668
C 43.71595764160156 55.16404342651367 57.0318717956543
C 44.59560012817383 54.76883316040039 55.83485794067383
C 43.599884033203125 53.806575775146484 57.706417083740234
C 44.521484375 52.926570892333984 57.164066314697266
C 40.24008560180664 55.1525764465332 53.74532699584961
C 44.177608489990234 55.07099533081055 54.50791549682617
C 40.269447326660156 52.82913589477539 57.83805465698242
C 43.48521041870117 54.32406234741211 52.53615951538086
C 45.13149642944336 53.03712844848633 53.6589469909668
C 41.157958984375 54.9013786315918 52.76211166381836
C 42.411537170410156 53.28264236450195 58.20340347290039
C 41.53446578979492 51.60673904418945 51.549251556396484
C 40.4124755859375 51.09104537963867 52.155704498291016
C 39.803646087646484 49.791866302490234 55.27127456665039
C 41.72406768798828 49.40797805786133 53.25106430053711
C 42.35558319091797 55.82094955444336 56.68324661254883
C 42.02144241333008 56.0390510559082 55.21976089477539
C 41.14736557006836 54.9836540222168 57.11062240600586
C 40.70612716674805 55.58682632446289 54.96644973754883
C 38.855323791503906 51.4092903137207 53.73319625854492
C 45.12904739379883 53.458438873291016 56.009647369384766
C 41.16716003417969 53.858333587646484 57.852169036865234
C 40.21052932739258 54.96406173706055 56.06950759887695
C 42.22312545776367 51.902042388916016 58.227840423583984
C 39.30106735229492 54.160709381103516 53.61025619506836
C 42.95790100097656 55.72426223754883 54.24501419067383
C 44.47230911254883 54.1983528137207 53.457942962646484
C 44.37185287475586 51.49141311645508 57.238826751708984
C 45.45692825317383 52.62527084350586 54.95774459838867
C 40.51450729370117 49.99081039428711 52.9825553894043
C 42.515586853027344 55.17172622680664 53.03713607788086
C 38.776206970214844 53.59309768676758 54.766849517822266
C 43.73284912109375 49.698604583740234 56.0037956237793
C 42.81426239013672 49.76851272583008 57.04806900024414
C 40.511905670166016 50.510990142822266 57.27481460571289
C 38.8411865234375 51.82353591918945 56.14500045776367
C 43.709510803222656 51.98274612426758 51.9452018737793
C 41.74728012084961 52.970760345458984 51.53364944458008
C 39.42951965332031 50.572933197021484 56.382503509521484
C 42.885799407958984 49.95607376098633 52.66337203979492
C 44.29034423828125 56.18962478637695 58.015628814697266
N 43.604549407958984 57.28928756713867 58.19198989868164
C 42.31861114501953 57.15627670288086 57.438175201416016
H 42.32579040527344 57.99838638305664 56.74143600463867
H 41.43778610229492 57.20101547241211 58.08377456665039
C 48.45362854003906 55.68854904174805 59.191532135009766
C 47.42899703979492 54.98545455932617 59.81621170043945
H 47.66991424560547 54.15279006958008 60.472110748291016
C 46.103660583496094 55.214839935302734 59.42354965209961
H 45.31353759765625 54.581661224365234 59.818973541259766
C 45.73386764526367 56.0620231628418 58.4341926574707
C 48.111488342285156 56.59909439086914 58.1557502746582
H 48.809844970703125 57.324222564697266 57.745792388916016
C 46.74856948852539 56.821041107177734 57.82380294799805
H 46.311180114746094 57.449947357177734 57.052608489990234
C 49.885459899902344 55.415958404541016 59.51496505737305
C 50.18270492553711 54.36178207397461 60.534915924072266
C 49.69869613647461 54.0545539855957 61.73233413696289
H 48.92237854003906 54.49629592895508 62.34831619262695
C 50.38996887207031 52.87309646606445 62.25508499145508
H 50.25526428222656 52.44502639770508 63.242923736572266
C 51.18889617919922 52.44479751586914 61.231876373291016
N 50.97300338745117 53.30557632446289 60.18687057495117
H 51.34034729003906 53.134395599365234 59.26065444946289
C 52.26272964477539 51.49819564819336 61.166255950927734
H 52.457725524902344 50.9992790222168 62.11440658569336
C 53.06547546386719 51.253238677978516 60.06881332397461
C 54.22868728637695 50.473636627197266 60.09672164916992
H 54.64628219604492 49.97715377807617 60.96641159057617
C 54.642948150634766 50.37147903442383 58.79555130004883
H 55.54757308959961 49.854679107666016 58.4925651550293
C 53.761165618896484 51.098506927490234 57.97684860229492
N 52.84647750854492 51.652156829833984 58.72917556762695
C 54.0880012512207 51.343875885009766 56.57273483276367
C 54.209720611572266 52.5838508605957 56.03120040893555
C 55.22481918334961 53.09089279174805 55.1772575378418
H 56.11186599731445 52.5412712097168 54.88014602661133
C 55.03011703491211 54.46402359008789 55.06184768676758
H 55.64944076538086 55.22592544555664 54.600154876708984
C 54.025753021240234 54.92637252807617 55.92649459838867
N 53.54458999633789 53.71969223022461 56.35117721557617
H 52.79840850830078 53.65202713012695 57.029964447021484
C 53.61198806762695 56.121097564697266 56.39004135131836
H 54.187015533447266 56.94719314575195 55.97431564331055
C 52.52293395996094 56.423580169677734 57.35578536987305
C 52.11199951171875 57.66757583618164 57.90232467651367
H 52.48493194580078 58.65920639038086 57.6682014465332
C 51.051509857177734 57.343563079833984 58.743289947509766
H 50.478904724121094 58.088314056396484 59.28615188598633
C 50.86589050292969 55.99858474731445 58.722042083740234
N 51.792335510253906 55.46369552612305 57.96223831176758
C 54.405208587646484 47.80411911010742 53.92851638793945
C 54.45186233520508 49.11403274536133 53.43740463256836
H 54.41579055786133 49.31975173950195 52.37065505981445
C 54.3297004699707 50.20339584350586 54.32120132446289
H 54.4311637878418 51.20701217651367 53.91618728637695
C 54.14357376098633 50.099002838134766 55.66716384887695
C 54.05124282836914 47.66892623901367 55.28135299682617
H 54.02621841430664 46.63077926635742 55.60257339477539
C 53.893550872802734 48.7582893371582 56.0792350769043
H 53.76987075805664 48.646366119384766 57.15336227416992
N 54.570552825927734 46.64742660522461 53.061344146728516
H 54.491397857666016 45.769901275634766 53.55305099487305
C 54.7139778137207 46.563838958740234 51.70260238647461
O 54.46957778930664 47.51145553588867 50.977535247802734
C 55.14310073852539 45.25064468383789 51.16807174682617
C 54.788692474365234 44.87288284301758 49.875247955322266
H 54.11085891723633 45.533443450927734 49.34067153930664
C 55.256046295166016 43.706661224365234 49.30117416381836
C 55.94314193725586 42.78207778930664 50.06638717651367
H 56.4835090637207 41.90093994140625 49.729976654052734
C 56.275028228759766 43.11688995361328 51.41134262084961
H 56.7210578918457 42.40632629394531 52.10251235961914
C 55.8669319152832 44.3458366394043 51.920467376708984
H 56.21931076049805 44.722965240478516 52.87711715698242
C 54.862979888916016 43.53569412231445 47.88748550415039
H 54.18660354614258 44.31862258911133 47.547672271728516
C 55.2088508605957 42.46669006347656 47.047603607177734
H 55.81528854370117 41.67947006225586 47.49306869506836
C 54.7807502746582 42.26319122314453 45.66675567626953
C 55.09889602661133 40.98856735229492 45.10687255859375
H 55.921329498291016 41.04800033569336 44.390953063964844
H 54.25310134887695 40.546112060546875 44.57646560668945
H 55.300289154052734 40.20649719238281 45.84190368652344
C 54.06412887573242 43.137481689453125 44.93219757080078
H 53.89997482299805 44.080013275146484 45.45240020751953
C 53.634395599365234 43.05460739135742 43.591732025146484
H 53.89372634887695 42.13249969482422 43.07366943359375
C 53.06877517700195 44.071895599365234 42.88264465332031
H 52.91427230834961 44.98477554321289 43.45597457885742
C 52.5073127746582 43.994869232177734 41.532405853271484
C 51.280540466308594 44.89017105102539 41.35953140258789
H 50.65262222290039 44.69975662231445 40.48664855957031
H 50.615840911865234 44.89577102661133 42.22590637207031
H 51.563751220703125 45.92363357543945 41.149261474609375
C 52.97505187988281 43.22892761230469 40.59376525878906
H 53.7607536315918 42.514366149902344 40.8346061706543
C 52.491737365722656 43.08333969116211 39.22696304321289
H 51.798519134521484 43.843631744384766 38.870147705078125
C 52.79369354248047 42.068973541259766 38.46085739135742
H 53.45302200317383 41.29148864746094 38.84390640258789
C 52.319766998291016 41.877201080322266 37.117366790771484
H 51.631690979003906 42.64240646362305 36.76109313964844
C 52.584129333496094 40.93425750732422 36.2425651550293
C 53.49574661254883 39.790252685546875 36.58108139038086
H 53.40706253051758 38.96228790283203 35.874629974365234
H 54.5681266784668 39.99628448486328 36.58420944213867
H 53.142398834228516 39.233699798583984 37.45163345336914
C 52.091163635253906 40.89213562011719 34.85257339477539
H 52.40711212158203 40.06729507446289 34.21560287475586
C 51.31049346923828 41.79020309448242 34.22745132446289
H 50.83863067626953 42.53303527832031 34.8689079284668
C 50.93764877319336 41.73234176635742 32.85646438598633
H 51.328426361083984 40.855228424072266 32.3427619934082
C 50.13404083251953 42.482666015625 32.1235466003418
C 49.289268493652344 43.566402435302734 32.759029388427734
H 49.896507263183594 44.07182693481445 33.51286315917969
H 49.07951354980469 44.35084915161133 32.02888488769531
H 48.36382293701172 43.23537063598633 33.23487854003906
C 49.920875549316406 42.265804290771484 30.737422943115234
H 50.77518844604492 41.98827362060547 30.121749877929688
C 48.681758880615234 42.419830322265625 30.155364990234375
H 47.839168548583984 42.51610565185547 30.838520050048828
C 48.35463333129883 42.22817611694336 28.742950439453125
C 49.18370819091797 42.5452766418457 27.784446716308594
C 50.45283126831055 43.33523178100586 27.94519805908203
H 50.367042541503906 44.10148239135742 28.718482971191406
H 51.3056526184082 42.726341247558594 28.252460479736328
H 50.73887634277344 43.83652114868164 27.0181884765625
C 48.83761215209961 42.24115753173828 26.348663330078125
H 49.816383361816406 42.177955627441406 25.868587493896484
H 48.467716217041016 43.179073333740234 25.92919158935547
C 47.77667236328125 41.14011001586914 26.03506851196289
H 48.20448303222656 40.146358489990234 26.183082580566406
H 47.61449432373047 41.13547897338867 24.955188751220703
C 46.63984680175781 41.41203689575195 26.938064575195312
H 46.29243850708008 42.423362731933594 26.71673583984375
H 45.78594207763672 40.7353630065918 26.864418029785156
C 47.03200149536133 41.51411819458008 28.395771026611328
C 45.799232482910156 42.05131149291992 29.14386749267578
H 45.80556106567383 41.98885726928711 30.234058380126953
H 45.707374572753906 43.112030029296875 28.901142120361328
H 44.8642692565918 41.56136703491211 28.86410903930664
C 46.97599411010742 40.03839111328125 28.895427703857422
H 47.12010955810547 39.89573287963867 29.968433380126953
H 46.07221984863281 39.45961380004883 28.69375228881836
H 47.81377029418945 39.52255630493164 28.421607971191406
