207
Triad, Carotenoid-Porphyrin-C60
C 45.13766098022461 49.55232620239258 51.78276443481445
C 49.321502685546875 45.53608322143555 48.996585845947266
C 47.11245346069336 45.39564514160156 49.1143798828125
C 45.21742630004883 46.88078308105469 49.57075119018555
C 51.012630462646484 47.184112548828125 49.26779556274414
C 50.40880584716797 46.003875732421875 49.694488525390625
C 49.45956802368164 47.37351608276367 47.43527603149414
C 46.67390060424805 47.24970245361328 47.610382080078125
C 45.66673278808594 50.733673095703125 49.93060302734375
C 50.587974548339844 47.83129119873047 48.05757141113281
C 44.612457275390625 48.89619064331055 50.676082611083984
C 51.016929626464844 50.00479507446289 51.52302932739258
C 51.435546875 47.92195129394531 50.38234329223633
C 49.16454315185547 51.46825408935547 51.926456451416016
C 47.839561462402344 51.81663131713867 49.810001373291016
C 47.934051513671875 51.764991760253906 51.23005676269531
C 50.88557434082031 49.97193145751953 49.27504348754883
C 48.68877029418945 48.47089385986328 47.043724060058594
C 47.33000564575195 48.39929962158203 47.156471252441406
C 47.21853256225586 50.54413604736328 48.067359924316406
C 47.62492752075195 45.740234375 53.36711883544922
C 49.051456451416016 46.08927536010742 53.07154846191406
C 47.20950698852539 45.22599411010742 51.989322662353516
C 48.35022735595703 44.99760437011719 51.19322204589844
C 47.41090774536133 50.50382995605469 53.05971908569336
C 49.67684555053711 47.28053283691406 53.431419372558594
C 44.765541076660156 47.49629211425781 50.7034912109375
C 50.708988189697266 49.20952606201172 52.7144660949707
C 51.14415740966797 47.16124725341797 51.4965705871582
C 48.835487365722656 50.659645080566406 53.03058624267578
C 46.035743713378906 45.70076370239258 51.31333923339844
C 50.11984634399414 51.045875549316406 49.76297378540039
C 48.95398712158203 51.42549133300781 49.07914733886719
C 46.56053924560547 49.41908645629883 47.61734390258789
C 49.34865951538086 49.630245208740234 47.45842361450195
C 46.8089714050293 46.982337951660156 53.90113830566406
C 47.595176696777344 48.29199981689453 54.0404052734375
C 45.61424255371094 47.447017669677734 53.02473068237305
C 46.83487319946289 49.34195327758789 53.51241683959961
C 46.75644302368164 51.219635009765625 49.208377838134766
C 49.424713134765625 45.50001907348633 51.86614990234375
C 45.272884368896484 46.803245544433594 51.83311462402344
C 45.65544891357422 48.849327087402344 52.936946868896484
C 46.08572769165039 45.82811737060547 49.94346618652344
C 46.87930679321289 51.18180847167969 51.941280364990234
C 48.98133087158203 48.33254623413086 53.891666412353516
C 50.752166748046875 47.805362701416016 52.69399642944336
C 48.281166076660156 45.02090072631836 49.761287689208984
C 50.52534103393555 45.997535705566406 51.074974060058594
C 48.560245513916016 50.642181396484375 47.9974250793457
C 49.58076858520508 49.546756744384766 53.45242691040039
C 45.76389694213867 50.68647003173828 51.29389572143555
C 48.82986068725586 46.2247200012207 47.926692962646484
C 47.43283462524414 46.15493392944336 48.00635528564453
C 45.547542572021484 47.57423782348633 48.36626434326172
C 45.0235595703125 49.59503936767578 49.518131256103516
C 51.36293411254883 49.310462951660156 50.36835861206055
C 50.23381805419922 51.07197570800781 51.13044357299805
C 45.43546676635742 48.968605041503906 48.34135818481445
C 50.51784896850586 49.245208740234375 48.10874557495117
C 47.45121383666992 44.71835708618164 54.48760223388672
N 46.73476791381836 45.14573287963867 55.464637756347656
C 46.53847885131836 46.59944152832031 55.39430236816406
H 47.24382400512695 47.193565368652344 55.980953216552734
H 45.53339385986328 46.75523376464844 55.794532775878906
C 48.79241180419922 40.71566390991211 53.86447525024414
C 47.43510055541992 41.08899688720703 53.725128173828125
H 46.7751579284668 40.362632751464844 53.25775146484375
C 46.91093063354492 42.31087875366211 54.041786193847656
H 45.89693832397461 42.65517807006836 53.85511016845703
C 47.84857940673828 43.304805755615234 54.38450241088867
C 49.70405960083008 41.762451171875 54.173011779785156
H 50.75166320800781 41.48344039916992 54.2520637512207
C 49.24074172973633 43.05527877807617 54.3663215637207
H 49.92231369018555 43.85527038574219 54.643882751464844
C 49.2864990234375 39.272499084472656 53.63288116455078
C 48.269710540771484 38.415191650390625 52.93887710571289
C 47.090938568115234 37.908634185791016 53.39069747924805
H 46.75382614135742 37.91676712036133 54.421966552734375
C 46.59249496459961 37.02631759643555 52.38062286376953
H 45.69458770751953 36.425716400146484 52.481937408447266
C 47.545597076416016 37.0185432434082 51.396278381347656
N 48.49871063232422 37.95682907104492 51.72386169433594
H 49.28679275512695 38.190425872802734 51.135223388671875
C 47.524349212646484 36.27583694458008 50.14933395385742
H 46.58952331542969 35.717979431152344 50.12066650390625
C 48.44804000854492 36.01526641845703 49.21815872192383
C 48.12224197387695 35.49309539794922 47.96472930908203
H 47.19284439086914 35.19269943237305 47.492271423339844
C 49.279205322265625 35.644920349121094 47.29771423339844
H 49.51413345336914 35.52558135986328 46.24519729614258
C 50.24787521362305 36.39943313598633 48.10737991333008
N 49.72765350341797 36.50784683227539 49.344268798828125
C 51.559959411621094 36.99320602416992 47.90129852294922
C 52.581668853759766 36.97050094604492 48.833251953125
C 53.94892120361328 36.5867919921875 48.862937927246094
H 54.46815872192383 36.13417053222656 48.024635314941406
C 54.51082992553711 36.908714294433594 50.05815887451172
H 55.516082763671875 36.57418441772461 50.29221725463867
C 53.53242111206055 37.499916076660156 50.909881591796875
N 52.458255767822266 37.48886489868164 50.124229431152344
H 51.624107360839844 37.93909454345703 50.47581100463867
C 53.67021942138672 37.919212341308594 52.15823745727539
H 54.631591796875 37.82286834716797 52.6606330871582
C 52.625179290771484 38.466156005859375 53.03091049194336
C 52.6757926940918 38.86968231201172 54.43476104736328
H 53.59857940673828 39.109195709228516 54.952762603759766
C 51.39611053466797 39.2146110534668 54.79861068725586
H 50.97561264038086 39.56624984741211 55.73497009277344
C 50.62273406982422 38.996055603027344 53.68864440917969
N 51.3547248840332 38.549224853515625 52.64902877807617
C 52.13075256347656 39.821556091308594 44.71331024169922
C 53.18353271484375 39.53302001953125 45.6121940612793
H 53.99116516113281 40.26055145263672 45.61204528808594
C 52.98878479003906 38.607398986816406 46.58055114746094
H 53.75506591796875 38.50463104248047 47.34463119506836
C 51.79368209838867 37.867794036865234 46.72116470336914
C 50.95207214355469 39.12036895751953 44.82169723510742
H 50.250244140625 39.388065338134766 44.035987854003906
C 50.79901885986328 38.08058547973633 45.7492790222168
H 49.8374137878418 37.58209991455078 45.84091567993164
N 52.327110290527344 40.779029846191406 43.694602966308594
H 53.299476623535156 40.748497009277344 43.42692565917969
C 51.39561462402344 41.5518798828125 43.02360153198242
O 50.18806838989258 41.63869094848633 43.28569793701172
C 51.96476364135742 42.50373077392578 42.04587173461914
C 51.60956954956055 43.82093048095703 42.280128479003906
H 50.8541145324707 44.01095199584961 43.03826141357422
C 52.13217544555664 44.81825637817383 41.52043533325195
C 53.04975891113281 44.42472457885742 40.506736755371094
H 53.36933135986328 45.19746017456055 39.8122444152832
C 53.38761901855469 43.127376556396484 40.16792297363281
H 53.98819351196289 42.78390884399414 39.32952880859375
C 52.94630813598633 42.13298416137695 41.08216094970703
H 53.180885314941406 41.08442306518555 40.91762161254883
C 51.79087829589844 46.2208137512207 41.82318115234375
H 51.02317428588867 46.37824630737305 42.5793342590332
C 52.29230499267578 47.390625 41.346435546875
H 53.161834716796875 47.25891876220703 40.70417785644531
C 51.93850326538086 48.778411865234375 41.61037063598633
C 52.146087646484375 49.62123107910156 40.4798698425293
H 51.2713623046875 49.63332748413086 39.826297760009766
H 53.056583404541016 49.23419189453125 40.01762771606445
H 52.36357498168945 50.638797760009766 40.81111145019531
C 51.107669830322266 49.09201431274414 42.61515808105469
H 50.709678649902344 48.36479187011719 43.321327209472656
C 50.52450942993164 50.42653274536133 42.67300033569336
H 50.615379333496094 51.05534362792969 41.788543701171875
C 49.86391067504883 50.916114807128906 43.72551727294922
H 49.83113098144531 50.320003509521484 44.636287689208984
C 49.156822204589844 52.177345275878906 43.941444396972656
C 48.58665466308594 52.81431198120117 42.7096061706543
H 47.5958366394043 53.16375732421875 43.0073127746582
H 49.32099151611328 53.605716705322266 42.54560470581055
H 48.554054260253906 52.162593841552734 41.83401107788086
C 49.11089324951172 52.7477912902832 45.15088653564453
H 49.544368743896484 52.11695098876953 45.9255256652832
C 48.68951416015625 54.09103012084961 45.388084411621094
H 47.96484375 54.56665802001953 44.7288818359375
C 48.940704345703125 54.6517219543457 46.602806091308594
H 49.66060256958008 54.24945831298828 47.31404113769531
C 48.351322174072266 55.9367790222168 47.0052375793457
H 47.77483367919922 56.4712028503418 46.25159454345703
C 48.553733825683594 56.59593200683594 48.17392349243164
C 49.27986526489258 56.027950286865234 49.34773635864258
H 49.3071174621582 56.69871520996094 50.209007263183594
H 48.88652420043945 55.055572509765625 49.65143966674805
H 50.30784606933594 55.84074783325195 49.03044128417969
C 48.28217315673828 58.035667419433594 48.35563659667969
H 48.874267578125 58.67839050292969 49.00544738769531
C 47.17575454711914 58.62907409667969 47.8903694152832
H 46.42809295654297 58.031795501708984 47.370574951171875
C 46.9610595703125 60.07238006591797 48.023284912109375
H 47.5478630065918 60.63143539428711 48.750640869140625
C 45.8805046081543 60.816429138183594 47.73025894165039
C 44.81588363647461 60.19060516357422 46.869449615478516
H 44.03541564941406 59.66314697265625 47.42182922363281
H 44.405494689941406 60.91291427612305 46.160709381103516
H 45.25759506225586 59.42573928833008 46.227317810058594
C 45.66436004638672 62.16140365600586 48.254913330078125
H 46.54219436645508 62.60435485839844 48.723026275634766
C 44.56626510620117 63.005859375 48.1518440246582
H 43.84394836425781 62.69744110107422 47.39748001098633
C 44.434974670410156 64.3118896484375 48.786964416503906
C 44.652732849121094 64.54488372802734 50.10139465332031
C 44.95343017578125 63.508750915527344 51.103240966796875
H 45.03960418701172 62.51775360107422 50.652732849121094
H 45.89268493652344 63.75914764404297 51.600799560546875
H 44.156410217285156 63.466651916503906 51.84852600097656
C 44.772979736328125 65.92129516601562 50.73402404785156
H 45.78683853149414 65.93547821044922 51.13943099975586
H 44.0659294128418 66.04813385009766 51.556495666503906
C 44.666542053222656 67.14739227294922 49.80829620361328
H 45.3714485168457 67.91427612304688 50.13612365722656
H 43.721378326416016 67.66426849365234 49.98711013793945
C 44.862064361572266 66.68681335449219 48.36322784423828
H 44.55108642578125 67.49977111816406 47.70379638671875
H 45.92298889160156 66.45269012451172 48.253273010253906
C 44.0384407043457 65.48555755615234 47.92067337036133
C 42.600868225097656 65.96452331542969 47.94989013671875
H 42.37377166748047 66.15943145751953 49.00008010864258
H 42.48207092285156 66.92485046386719 47.44380187988281
H 41.84975051879883 65.23369598388672 47.64303970336914
C 44.33786392211914 65.34599304199219 46.4346809387207
H 43.80959701538086 64.49690246582031 45.995994567871094
H 44.163238525390625 66.26069641113281 45.86433792114258
H 45.390132904052734 65.0820083618164 46.31016159057617
