207
Triad, Carotenoid-Porphyrin-C60
C 43.80781936645508 59.79248809814453 60.06707763671875
C 50.10086441040039 59.50914764404297 58.50440216064453
C 48.516544342041016 60.87749481201172 57.788330078125
C 46.32278060913086 61.744041442871094 58.44947052001953
C 50.5356559753418 58.086952209472656 60.3343505859375
C 50.35965347290039 58.235435485839844 59.00232696533203
C 50.33811569213867 60.45799255371094 60.67669677734375
C 48.24222946166992 62.224632263183594 59.730369567871094
C 44.7891960144043 60.65412139892578 61.919715881347656
C 50.4979362487793 59.161109924316406 61.21245574951172
C 44.40391159057617 60.962890625 59.73523712158203
C 48.06962966918945 56.065399169921875 62.086204528808594
C 50.006221771240234 56.885704040527344 60.718345642089844
C 45.923030853271484 56.94361877441406 62.76872253417969
C 45.9524040222168 59.22108459472656 63.41465759277344
C 45.208255767822266 58.201080322265625 62.9241943359375
C 49.30532455444336 57.87773132324219 62.82988739013672
C 49.50645065307617 61.115509033203125 61.59141540527344
C 48.47537612915039 61.979270935058594 61.107421875
C 46.97383499145508 61.13434600830078 62.85572814941406
C 46.41702651977539 57.312477111816406 56.73182678222656
C 47.4717903137207 56.47642517089844 57.475486755371094
C 47.0612678527832 58.699317932128906 56.797996520996094
C 48.40256881713867 58.579505920410156 57.11436462402344
C 44.38228988647461 57.30406951904297 61.103553771972656
C 47.22075271606445 55.877647399902344 58.67295837402344
C 45.15336227416992 61.02411651611328 58.48650360107422
C 47.52253341674805 55.479774475097656 60.94781494140625
C 49.38229751586914 56.298194885253906 59.59501647949219
C 45.31815719604492 56.37513732910156 61.647789001464844
C 46.436458587646484 59.91767883300781 57.15184783935547
C 48.0188102722168 57.884849548339844 63.41228485107422
C 47.340938568115234 59.054412841796875 63.712738037109375
C 47.225528717041016 61.99535369873047 61.716156005859375
C 49.188777923583984 60.24120330810547 62.57322692871094
C 45.00508499145508 57.31415557861328 57.448585510253906
C 44.917850494384766 56.59764099121094 58.82091522216797
C 44.495426177978516 58.70155334472656 57.898231506347656
C 44.21305465698242 57.410614013671875 59.71803283691406
C 45.73946762084961 60.481895446777344 62.887603759765625
C 48.646366119384766 57.287986755371094 57.5816650390625
C 45.14677810668945 59.938453674316406 57.612403869628906
C 43.88942337036133 58.6607666015625 59.20579528808594
C 47.14107894897461 61.02226257324219 57.57475280761719
C 44.26480484008789 58.36498260498047 61.93506622314453
C 45.98405075073242 55.871788024902344 59.31590270996094
C 48.14409255981445 55.659271240234375 59.7105712890625
C 49.143436431884766 59.68507385253906 57.49890899658203
C 49.58784866333008 57.160858154296875 58.530487060546875
C 47.94711685180664 60.21979522705078 63.25128936767578
C 46.146183013916016 55.68963623046875 60.711090087890625
C 43.97414016723633 59.625267028808594 61.44403839111328
C 50.17258834838867 60.64031982421875 59.30729675292969
C 49.12343215942383 61.451812744140625 58.900047302246094
C 46.856258392333984 62.30015563964844 59.54907989501953
C 45.045772552490234 61.51099395751953 60.810760498046875
C 49.30177688598633 56.81147003173828 61.937889099121094
C 47.27994918823242 56.79530334472656 63.023536682128906
C 46.1989860534668 62.21006774902344 60.741371154785156
C 49.855777740478516 59.07215118408203 62.432762145996094
C 46.12483596801758 56.873329162597656 55.325927734375
N 44.92038345336914 56.53602600097656 55.144622802734375
C 44.13510513305664 56.5748291015625 56.392311096191406
H 43.9553337097168 55.52886199951172 56.65361785888672
H 43.19443130493164 57.105979919433594 56.225990295410156
C 48.66267013549805 57.14204406738281 51.83592987060547
C 48.92081069946289 56.20265197753906 52.86811065673828
H 49.62038040161133 55.39439392089844 52.67090606689453
C 48.07706832885742 56.18584442138672 54.00959777832031
H 48.405147552490234 55.42998504638672 54.71855163574219
C 46.987186431884766 57.002525329589844 54.170677185058594
C 47.5238151550293 57.96600341796875 52.015899658203125
H 47.2335090637207 58.63994598388672 51.213966369628906
C 46.68790054321289 57.90465545654297 53.138389587402344
H 45.727787017822266 58.41172790527344 53.189697265625
C 49.4976692199707 57.251258850097656 50.59989547729492
C 50.67978286743164 56.39068603515625 50.40213394165039
C 51.86823654174805 56.249755859375 51.12171936035156
H 52.15480422973633 56.731895446777344 52.050506591796875
C 52.75022506713867 55.56730651855469 50.273921966552734
H 53.82487106323242 55.50755310058594 50.410972595214844
C 52.11118698120117 55.13726806640625 49.15812683105469
N 50.81698989868164 55.638771057128906 49.26985549926758
H 50.061649322509766 55.504722595214844 48.61136245727539
C 52.693050384521484 54.65960693359375 47.958656311035156
H 53.7014274597168 54.262725830078125 48.06625747680664
C 52.10890579223633 54.493072509765625 46.7738151550293
C 52.75547409057617 53.81201934814453 45.68240737915039
H 53.7078742980957 53.29381561279297 45.64216613769531
C 51.8393440246582 53.92803192138672 44.652523040771484
H 51.9625358581543 53.64093017578125 43.61347579956055
C 50.63949203491211 54.53252410888672 45.177425384521484
N 50.87275314331055 54.98588562011719 46.37347412109375
C 49.49869155883789 54.9393310546875 44.382713317871094
C 48.84452438354492 56.165283203125 44.46990203857422
C 48.468807220458984 57.094383239746094 43.4853401184082
H 48.528133392333984 56.84242248535156 42.431671142578125
C 48.106075286865234 58.301856994628906 44.00459289550781
H 47.78470230102539 59.19274139404297 43.47517395019531
C 48.36691665649414 58.25403594970703 45.357154846191406
N 48.75423049926758 56.96058654785156 45.59272003173828
H 48.9918327331543 56.69896697998047 46.53993606567383
C 48.30353927612305 59.214393615722656 46.33871841430664
H 48.07820510864258 60.20653533935547 45.950374603271484
C 48.6057014465332 59.11280822753906 47.79074478149414
C 48.75474166870117 60.07453918457031 48.81859588623047
H 48.65896224975586 61.15118408203125 48.72426223754883
C 49.046756744384766 59.4239501953125 49.940399169921875
H 49.164608001708984 59.87127685546875 50.921844482421875
C 49.15315628051758 58.115943908691406 49.5973014831543
N 48.827213287353516 57.952857971191406 48.36695098876953
C 47.5027961730957 51.971412658691406 41.82645797729492
C 47.04190444946289 53.28297424316406 41.94333267211914
H 46.241703033447266 53.602378845214844 41.28059005737305
C 47.69712448120117 54.22663879394531 42.69789505004883
H 47.23776626586914 55.211585998535156 42.676795959472656
C 48.78012466430664 53.94548797607422 43.52578353881836
C 48.501712799072266 51.58778381347656 42.700775146484375
H 48.64968490600586 50.512733459472656 42.637969970703125
C 49.14845657348633 52.559906005859375 43.50987243652344
H 50.05886459350586 52.231056213378906 44.00442886352539
N 46.74943161010742 50.9803466796875 41.11737060546875
H 46.46963882446289 50.17045593261719 41.65017318725586
C 46.363155364990234 51.06915283203125 39.84248733520508
O 46.5635871887207 52.07134246826172 39.178043365478516
C 45.73251724243164 49.92591857910156 39.22587203979492
C 45.99612808227539 48.65489196777344 39.78181838989258
H 46.7601203918457 48.5595703125 40.54915237426758
C 45.4313850402832 47.526885986328125 39.21438217163086
C 44.65121841430664 47.63664245605469 38.048248291015625
H 44.25869369506836 46.73467254638672 37.585716247558594
C 44.25931167602539 48.845664978027344 37.56474685668945
H 43.45711898803711 48.880767822265625 36.83206558227539
C 44.85647201538086 49.99940490722656 38.11006546020508
H 44.70431900024414 50.979400634765625 37.665061950683594
C 45.687503814697266 46.18959045410156 39.7655029296875
H 46.37748336791992 46.281349182128906 40.60301971435547
C 45.228702545166016 44.960113525390625 39.422752380371094
H 44.65732192993164 44.90478515625 38.497344970703125
C 45.41140365600586 43.68829345703125 40.14611053466797
C 45.77742385864258 43.779571533203125 41.647823333740234
H 45.77408981323242 44.823890686035156 41.96697998046875
H 46.71244430541992 43.236846923828125 41.801631927490234
H 44.96175003051758 43.24900817871094 42.143436431884766
C 45.322261810302734 42.53227233886719 39.56692123413086
H 45.04316329956055 42.705322265625 38.52861022949219
C 45.58620834350586 41.232696533203125 40.00566864013672
H 46.015140533447266 41.086891174316406 40.9959602355957
C 45.559635162353516 40.1552734375 39.177467346191406
H 45.09767532348633 40.260658264160156 38.19695281982422
C 46.09695816040039 38.76136016845703 39.380950927734375
C 45.57600021362305 37.719886779785156 38.475547790527344
H 46.427547454833984 37.14446258544922 38.10647201538086
H 44.94339370727539 37.08641052246094 39.100833892822266
H 45.075748443603516 38.06890106201172 37.569786071777344
C 47.029117584228516 38.4461669921875 40.28400421142578
H 47.338993072509766 39.31996154785156 40.855308532714844
C 47.689701080322266 37.17304229736328 40.565582275390625
H 47.2559700012207 36.28614807128906 40.105995178222656
C 48.722721099853516 37.03636169433594 41.38576126098633
H 49.22121810913086 37.86725616455078 41.88277816772461
C 49.37203598022461 35.75968933105469 41.548187255859375
H 48.91958999633789 35.00169372558594 40.91049575805664
C 50.59482192993164 35.57653045654297 42.15414047241211
C 51.23057174682617 36.68231964111328 42.9920768737793
H 50.5187873840332 37.17517852783203 43.6575927734375
H 52.16133499145508 36.470420837402344 43.522403717041016
H 51.59151077270508 37.365318298339844 42.22025680541992
C 51.163639068603516 34.217041015625 42.25881576538086
H 52.13982009887695 34.15326690673828 42.73727798461914
C 50.68635940551758 33.120811462402344 41.683921813964844
H 49.71149826049805 33.11585998535156 41.1985969543457
C 51.29777908325195 31.799049377441406 41.918418884277344
H 52.09396743774414 31.810890197753906 42.66128921508789
C 51.29524612426758 30.710731506347656 41.05411911010742
C 50.30705642700195 30.770347595214844 39.938114166259766
H 49.351985931396484 31.085487365722656 40.36354064941406
H 50.64426040649414 31.524131774902344 39.22357177734375
H 50.13173294067383 29.820770263671875 39.42818832397461
C 51.97859573364258 29.445999145507812 41.12582778930664
H 51.62990951538086 28.673660278320312 40.44184112548828
C 53.01083755493164 29.110458374023438 41.94379806518555
H 53.37685012817383 29.822181701660156 42.682315826416016
C 53.65446090698242 27.790908813476562 42.167816162109375
C 54.02351760864258 26.948577880859375 41.15144348144531
C 54.210384368896484 27.39478302001953 39.76042175292969
H 55.176448822021484 27.900901794433594 39.70542526245117
H 54.05234146118164 26.647315979003906 38.98017120361328
H 53.50204849243164 28.217071533203125 39.63969039916992
C 54.524906158447266 25.517791748046875 41.37139129638672
H 55.21365737915039 25.210861206054688 40.58152770996094
H 53.59023666381836 24.975364685058594 41.214439392089844
C 55.07313919067383 25.2855224609375 42.81881332397461
H 56.077030181884766 25.68243408203125 42.9835090637207
H 55.1956672668457 24.210769653320312 42.968318939208984
C 54.0062141418457 25.83454132080078 43.79777145385742
H 53.09871292114258 25.245254516601562 43.650672912597656
H 54.31766128540039 25.569908142089844 44.81040954589844
C 53.68606948852539 27.308258056640625 43.66278076171875
C 52.45851516723633 27.584930419921875 44.51064682006836
H 52.5331916809082 27.036285400390625 45.45185470581055
H 52.20720291137695 28.63806915283203 44.652767181396484
H 51.6584587097168 27.169898986816406 43.89409637451172
C 54.764095306396484 28.01367950439453 44.40910339355469
H 54.953617095947266 27.45288848876953 45.326744079589844
H 55.68696212768555 28.06525421142578 43.827613830566406
H 54.47605514526367 29.038467407226562 44.652626037597656
