207
Triad, Carotenoid-Porphyrin-C60
C 57.85670852661133 43.329917907714844 60.264488220214844
C 51.885337829589844 43.56706237792969 62.620140075683594
C 52.47271728515625 43.044315338134766 60.492637634277344
C 54.56732940673828 42.35566711425781 59.422691345214844
C 52.655487060546875 43.49339294433594 64.89497375488281
C 52.11783981323242 44.242130279541016 63.805870056152344
C 52.653926849365234 41.42074966430664 63.645782470703125
C 53.54264450073242 40.92485427856445 61.075164794921875
C 57.86577224731445 41.43572235107422 61.37206268310547
C 52.910640716552734 42.09076690673828 64.83984375
C 56.96956253051758 42.49054718017578 59.62022399902344
C 55.9740104675293 44.556739807128906 65.73233795166016
C 53.57112121582031 44.396793365478516 65.51116180419922
C 58.1075325012207 43.83618927001953 64.66331481933594
C 57.978782653808594 41.56577682495117 63.86541748046875
C 58.48625946044922 42.843509674072266 63.756248474121094
C 55.004493713378906 42.493595123291016 65.8563232421875
C 53.65739822387695 40.472206115722656 63.473670959472656
C 54.12684631347656 40.247806549072266 62.11778259277344
C 56.436744689941406 40.19988250732422 62.882301330566406
C 54.49782943725586 46.760292053222656 60.74662780761719
C 54.106815338134766 46.90645217895508 62.291229248046875
C 53.66322708129883 45.62150955200195 60.30260467529297
C 52.72822952270508 45.37003707885742 61.32037353515625
C 58.3835563659668 44.733978271484375 62.628578186035156
C 55.08631134033203 46.858280181884766 63.28169250488281
C 55.73471450805664 43.04601287841797 59.208404541015625
C 55.99752426147461 45.7412109375 64.99504089355469
C 53.6004753112793 45.60997772216797 64.79576873779297
C 57.98945999145508 45.01024627685547 63.90424346923828
C 54.12060546875 44.538917541503906 59.50360870361328
C 56.429603576660156 42.36902618408203 65.62193298339844
C 56.93913269042969 41.294639587402344 64.82959747314453
C 55.49916076660156 40.06305694580078 61.828590393066406
C 54.629878997802734 40.58452224731445 64.46443176269531
C 56.03861618041992 46.57255554199219 60.49726867675781
C 56.93131637573242 46.45610427856445 61.69275665283203
C 56.449214935302734 45.26419448852539 59.77063751220703
C 57.778316497802734 45.369937896728516 61.56000518798828
C 57.593505859375 40.879432678222656 62.68495178222656
C 52.951229095458984 46.12704086303711 62.48517608642578
C 55.474342346191406 44.40829086303711 59.22704315185547
C 57.53059387207031 44.706172943115234 60.379661560058594
C 53.5316047668457 43.252994537353516 59.621665954589844
C 58.66299057006836 43.3642578125 62.5054931640625
C 56.41862487792969 46.624210357666016 62.964447021484375
C 54.77690124511719 46.244808197021484 64.5092544555664
C 52.16503143310547 44.089176177978516 61.375083923339844
C 52.670204162597656 45.50529479980469 63.764381408691406
C 56.0185661315918 40.51792526245117 64.17161560058594
C 56.97447204589844 45.95329666137695 64.06371307373047
C 58.40205383300781 42.70798110961914 61.33051300048828
C 52.11181640625 42.16386032104492 62.562896728515625
C 52.48953628540039 41.85428237915039 61.266265869140625
C 54.547237396240234 41.182613372802734 60.156524658203125
C 56.96218490600586 41.27623748779297 60.32258605957031
C 54.75860595703125 43.87895584106445 65.97518157958984
C 56.955379486083984 43.64320755004883 65.5538101196289
C 55.76622772216797 40.51823806762695 60.538116455078125
C 54.10923767089844 41.58831787109375 65.3258285522461
C 54.168418884277344 47.935611724853516 59.97047424316406
N 55.1241455078125 48.58182907104492 59.44561004638672
C 56.38041305541992 47.88330078125 59.641387939453125
H 56.91783142089844 48.615814208984375 60.249061584472656
H 56.80223083496094 47.65234375 58.659873962402344
C 50.28678512573242 49.90524673461914 59.684478759765625
C 51.38638687133789 50.54967498779297 60.27806854248047
H 51.37818145751953 51.60055160522461 60.55586242675781
C 52.60801696777344 49.89809799194336 60.48322296142578
H 53.46992111206055 50.507423400878906 60.74285125732422
C 52.85425567626953 48.61844253540039 59.998382568359375
C 50.506072998046875 48.62032699584961 59.238609313964844
H 49.63669204711914 48.197998046875 58.74122619628906
C 51.73330307006836 47.96197509765625 59.37477111816406
H 51.862430572509766 46.97025680541992 58.94886779785156
C 48.966068267822266 50.62192153930664 59.483970642089844
C 48.94055938720703 52.06595230102539 59.778533935546875
C 49.222835540771484 52.73845291137695 60.93299102783203
H 49.459754943847656 52.386051177978516 61.93144226074219
C 48.96541213989258 54.09898376464844 60.672576904296875
H 49.09083557128906 54.909610748291016 61.38276672363281
C 48.49788284301758 54.253997802734375 59.3546142578125
N 48.54386901855469 53.028465270996094 58.82604217529297
H 48.178436279296875 52.82752990722656 57.905059814453125
C 48.03990173339844 55.401817321777344 58.626914978027344
H 48.090110778808594 56.31669998168945 59.21546936035156
C 47.42586898803711 55.53683853149414 57.392356872558594
C 46.98839569091797 56.75978088378906 56.85047149658203
H 47.23820877075195 57.76028823852539 57.187828063964844
C 46.431243896484375 56.36006164550781 55.70610809326172
H 45.98897171020508 57.00529861450195 54.954254150390625
C 46.46464157104492 54.965301513671875 55.58995819091797
N 47.137054443359375 54.46992874145508 56.60542297363281
C 45.8885383605957 54.108497619628906 54.537376403808594
C 45.28274917602539 52.861549377441406 54.87932586669922
C 44.108665466308594 52.18767166137695 54.34510803222656
H 43.44868469238281 52.577449798583984 53.577171325683594
C 43.962158203125 51.054725646972656 55.11260223388672
H 43.19871139526367 50.31245040893555 54.90424346923828
C 44.95541763305664 50.91875076293945 56.09526824951172
N 45.63540267944336 52.05119705200195 55.97200012207031
H 46.40028762817383 52.26544189453125 56.597434997558594
C 45.071983337402344 49.840728759765625 56.92668151855469
H 44.33969497680664 49.06367492675781 56.71253204345703
C 46.07238006591797 49.49728775024414 57.887916564941406
C 46.26693344116211 48.45119094848633 58.7578125
H 45.66868591308594 47.556697845458984 58.896392822265625
C 47.34791564941406 48.83510208129883 59.492340087890625
H 47.65003204345703 48.328651428222656 60.40308380126953
C 47.90603256225586 49.98184585571289 58.94611358642578
N 47.05222702026367 50.420780181884766 58.090049743652344
C 46.33531951904297 55.17103576660156 50.314674377441406
C 45.69517517089844 53.98832321166992 50.64366912841797
H 45.38539123535156 53.288265228271484 49.87196350097656
C 45.598846435546875 53.65928649902344 52.006263732910156
H 45.34237289428711 52.61543273925781 52.16804504394531
C 46.05830764770508 54.522247314453125 53.04707336425781
C 46.7870979309082 55.97952651977539 51.283790588378906
H 47.25960159301758 56.9095573425293 50.978248596191406
C 46.63538360595703 55.75832748413086 52.62049865722656
H 47.17412567138672 56.36182403564453 53.346527099609375
N 46.434112548828125 55.447296142578125 48.90739440917969
H 46.17361068725586 56.39720916748047 48.688560485839844
C 46.912593841552734 54.72347640991211 47.89221954345703
O 47.27994155883789 53.55900955200195 48.02368927001953
C 46.722312927246094 55.35898208618164 46.54735565185547
C 46.47400665283203 54.555908203125 45.43419647216797
H 46.52830505371094 53.478782653808594 45.569923400878906
C 46.236881256103516 55.058101654052734 44.16048049926758
C 46.30434799194336 56.45094680786133 44.026397705078125
H 46.056339263916016 56.889617919921875 43.063262939453125
C 46.410987854003906 57.327754974365234 45.10225296020508
H 46.245540618896484 58.396087646484375 44.98883819580078
C 46.54804229736328 56.72983932495117 46.349945068359375
H 46.587791442871094 57.453487396240234 47.16008758544922
C 45.97858810424805 54.03996276855469 43.10185623168945
H 45.98430633544922 53.01128387451172 43.45922088623047
C 45.69191360473633 54.27250289916992 41.784095764160156
H 45.73253631591797 55.2950553894043 41.41172790527344
C 45.431419372558594 53.327415466308594 40.728519439697266
C 44.810516357421875 51.95914840698242 41.06842803955078
H 44.48731231689453 51.95073699951172 42.11146926879883
H 45.4789924621582 51.109371185302734 40.915184020996094
H 43.973304748535156 51.87989044189453 40.371826171875
C 45.58327865600586 53.63345718383789 39.48573684692383
H 45.92464828491211 54.61872482299805 39.171669006347656
C 45.340980529785156 52.80861282348633 38.328800201416016
H 44.951168060302734 51.810272216796875 38.52188491821289
C 45.72124481201172 53.135826110839844 37.118408203125
H 46.33055114746094 54.03706741333008 37.069122314453125
C 45.596736907958984 52.44010543823242 35.86634063720703
C 45.92545700073242 53.27048873901367 34.689781188964844
H 44.9128303527832 53.61568832397461 34.470924377441406
H 46.589874267578125 54.09227752685547 34.96487045288086
H 46.379844665527344 52.759185791015625 33.838565826416016
C 45.298484802246094 51.176063537597656 35.71290969848633
H 45.11591339111328 50.49626541137695 36.543853759765625
C 44.952884674072266 50.54957580566406 34.42197036743164
H 44.839561462402344 51.217281341552734 33.569175720214844
C 44.73944091796875 49.29071044921875 34.28477096557617
H 44.93867874145508 48.58719253540039 35.091796875
C 44.44359588623047 48.66509246826172 33.00436019897461
H 44.62221908569336 49.372501373291016 32.1959114074707
C 43.990699768066406 47.41926956176758 32.69056701660156
C 43.686832427978516 46.39599609375 33.74299240112305
H 42.70338439941406 45.93252944946289 33.640602111816406
H 44.50187683105469 45.67053985595703 33.69961929321289
H 43.84962463378906 46.910213470458984 34.69248580932617
C 43.758819580078125 46.864383697509766 31.315155029296875
H 43.258575439453125 45.911197662353516 31.15050506591797
C 44.09000778198242 47.50938034057617 30.15502166748047
H 44.62089157104492 48.459999084472656 30.134864807128906
C 43.601444244384766 47.12819290161133 28.834590911865234
H 43.25409698486328 46.096866607666016 28.79421615600586
C 43.52322006225586 47.70767593383789 27.640560150146484
C 43.75899124145508 49.189842224121094 27.564456939697266
H 44.69490432739258 49.470821380615234 28.051876068115234
H 43.850196838378906 49.47964859008789 26.51557159423828
H 42.945556640625 49.68720626831055 28.096824645996094
C 42.91820526123047 47.1587028503418 26.44646453857422
H 41.88798141479492 46.81479263305664 26.52576446533203
C 43.6020393371582 46.98543167114258 25.247753143310547
H 44.62959289550781 47.34440994262695 25.282211303710938
C 43.01353073120117 46.6657600402832 23.948726654052734
C 41.74436950683594 47.0102653503418 23.557098388671875
C 40.74920654296875 47.987510681152344 24.229331970214844
H 40.375267028808594 48.73746109008789 23.52918243408203
H 39.840572357177734 47.46501541137695 24.535690307617188
H 41.30719757080078 48.574607849121094 24.961742401123047
C 41.10924530029297 46.46363067626953 22.286781311035156
H 41.3315315246582 47.0948486328125 21.423870086669922
H 40.0185661315918 46.43678283691406 22.33321762084961
C 41.76008605957031 45.1402473449707 21.747482299804688
H 41.50611877441406 44.8394889831543 20.728900909423828
H 41.50999450683594 44.263912200927734 22.34911346435547
C 43.308589935302734 45.56023406982422 21.738937377929688
H 43.870914459228516 44.74082946777344 21.286357879638672
H 43.398250579833984 46.46772766113281 21.13821029663086
C 43.93502426147461 45.79564666748047 23.06131362915039
C 44.154052734375 44.459251403808594 23.719974517822266
H 44.69666290283203 44.50617980957031 24.666454315185547
H 43.19993209838867 44.056678771972656 24.066463470458984
H 44.551353454589844 43.83104705810547 22.91999053955078
C 45.313499450683594 46.33868408203125 22.75692367553711
H 45.93684768676758 46.36061477661133 23.653263092041016
H 45.887542724609375 45.58320617675781 22.21637725830078
H 45.34421920776367 47.30558395385742 22.250343322753906
