207
Triad, Carotenoid-Porphyrin-C60
C 34.52047348022461 47.8689079284668 50.34189987182617
C 35.43364715576172 50.601566314697266 56.058712005615234
C 35.67275619506836 51.55417251586914 54.01839828491211
C 34.93696975708008 51.05650329589844 51.851444244384766
C 34.48560333251953 48.81056594848633 57.23849868774414
C 35.62571716308594 49.499847412109375 56.83090591430664
C 33.080936431884766 50.44892120361328 56.16007614135742
C 33.326759338378906 51.61092758178711 53.59586715698242
C 32.36478805541992 48.1522102355957 50.949214935302734
C 33.213043212890625 49.296199798583984 56.88582992553711
C 34.29645919799805 49.21161651611328 50.392147064208984
C 34.00996017456055 45.6277961730957 55.74699020385742
C 34.69015121459961 47.49049377441406 57.13914108276367
C 33.236183166503906 45.07304382324219 53.51359176635742
C 31.611116409301758 46.71954345703125 52.82399368286133
C 32.56889343261719 45.76445770263672 52.4841194152832
C 32.44258499145508 47.08537292480469 56.33309555053711
C 32.074886322021484 50.33847427368164 55.19388198852539
C 32.231746673583984 50.87106704711914 53.922237396240234
C 31.219430923461914 48.89311981201172 52.99128341674805
C 38.28685760498047 48.279911041259766 53.18330764770508
C 37.89762878417969 47.68170928955078 54.591190338134766
C 37.767208099365234 49.70319747924805 53.35325241088867
C 37.353904724121094 49.94590759277344 54.699581146240234
C 34.70685577392578 45.485740661621094 51.79530715942383
C 37.20745086669922 46.46865463256836 54.67757034301758
C 35.27891540527344 50.015010833740234 50.965946197509766
C 35.299896240234375 45.455406188964844 55.29049301147461
C 35.985008239746094 47.28428268432617 56.613407135009766
C 34.55561828613281 44.87416076660156 53.10056686401367
C 36.97703552246094 50.24518966674805 52.4084358215332
C 32.000335693359375 46.31156921386719 55.26772689819336
C 31.343252182006836 47.00959014892578 54.17403030395508
C 31.808225631713867 50.189151763916016 52.81851577758789
C 31.483545303344727 49.13461685180664 55.3811149597168
C 37.81826400756836 47.47457504272461 51.96976852416992
C 36.951622009277344 46.23629379272461 52.27071762084961
C 36.83043670654297 48.20524978637695 51.07180404663086
C 35.846622467041016 46.20140075683594 51.43925857543945
C 31.45890235900879 47.89307403564453 52.01149368286133
C 37.4809684753418 48.72528076171875 55.42605972290039
C 36.520111083984375 49.54354476928711 51.296207427978516
C 35.7986946105957 47.37501525878906 50.7349739074707
C 35.94493865966797 51.139404296875 52.72019577026367
C 33.48540496826172 46.05644607543945 51.471256256103516
C 36.76182174682617 45.72423553466797 53.581912994384766
C 36.27284622192383 46.30076599121094 55.68394088745117
C 36.34633255004883 50.86125946044922 55.04417037963867
C 36.577789306640625 48.54082489013672 56.472591400146484
C 30.997461318969727 48.355674743652344 54.25973129272461
C 35.603485107421875 45.1002197265625 53.97086715698242
C 33.35878372192383 47.19038391113281 50.635738372802734
C 34.21363067626953 51.16778564453125 55.7789192199707
C 34.37526321411133 51.75151824951172 54.49826431274414
C 33.59217071533203 51.314762115478516 52.23349380493164
C 33.003849029541016 49.3763542175293 50.7978401184082
C 33.68524932861328 46.65154266357422 56.64375686645508
C 32.92388916015625 45.37421417236328 54.88796615600586
C 32.668949127197266 50.38648986816406 51.74015426635742
C 32.20613098144531 48.46149826049805 56.40108871459961
C 39.76573181152344 48.2717399597168 53.03458786010742
N 40.27458953857422 47.675994873046875 51.994693756103516
C 39.137535095214844 47.12175369262695 51.232051849365234
H 39.22442626953125 46.03226089477539 51.22121810913086
H 39.183799743652344 47.49813461303711 50.20694351196289
C 42.25014877319336 50.431129455566406 55.8271369934082
C 42.02402877807617 49.059547424316406 55.9213981628418
H 42.51850891113281 48.518184661865234 56.7238883972168
C 41.2242546081543 48.32787322998047 55.00778579711914
H 41.13362503051758 47.2531623840332 55.14328384399414
C 40.59611511230469 48.992462158203125 53.94282150268555
C 41.70018005371094 51.09311294555664 54.7601432800293
H 41.878631591796875 52.159629821777344 54.649410247802734
C 40.8208122253418 50.37765121459961 53.92020034790039
H 40.280517578125 50.86836242675781 53.114688873291016
C 43.186439514160156 51.1363410949707 56.80051040649414
C 43.890724182128906 50.3395881652832 57.82247543334961
C 43.47526550292969 49.59124755859375 58.89420700073242
H 42.450721740722656 49.342002868652344 59.149967193603516
C 44.62767791748047 49.318599700927734 59.6988410949707
H 44.70655822753906 48.70058822631836 60.5871467590332
C 45.71498489379883 49.84260177612305 59.08455276489258
N 45.23084259033203 50.414337158203125 57.92641830444336
H 45.75960159301758 50.869659423828125 57.194828033447266
C 47.153560638427734 49.681209564208984 59.28718948364258
H 47.416099548339844 48.865631103515625 59.95936965942383
C 48.193145751953125 50.0757942199707 58.47957229614258
C 49.08872604370117 49.18630599975586 57.81180191040039
H 49.09079360961914 48.102203369140625 57.8558464050293
C 49.7186279296875 50.01016616821289 56.925289154052734
H 50.447139739990234 49.77865219116211 56.15529251098633
C 49.416934967041016 51.386653900146484 57.169612884521484
N 48.54656982421875 51.4217529296875 58.14762496948242
C 49.83644485473633 52.53683090209961 56.28562545776367
C 49.0755615234375 53.66277313232422 56.2297248840332
C 49.43265914916992 55.05740737915039 56.17277908325195
H 50.38996505737305 55.56801223754883 56.181461334228516
C 48.23118209838867 55.75482940673828 56.1445198059082
H 48.04243469238281 56.818267822265625 56.24795150756836
C 47.106388092041016 54.88679885864258 56.216121673583984
N 47.71917724609375 53.71918487548828 56.22520065307617
H 47.18465805053711 52.86109924316406 56.21535873413086
C 45.76649856567383 55.178340911865234 56.2479362487793
H 45.585594177246094 56.24531555175781 56.1264533996582
C 44.639442443847656 54.3165283203125 56.31620407104492
C 43.27182388305664 54.643497467041016 56.3001823425293
H 42.87059020996094 55.64127731323242 56.15639114379883
C 42.65671920776367 53.43572998046875 56.51032638549805
H 41.615509033203125 53.301639556884766 56.784420013427734
C 43.54926300048828 52.43852996826172 56.5126838684082
N 44.757049560546875 53.00928497314453 56.41587448120117
C 53.606475830078125 52.55015182495117 54.29861068725586
C 52.639774322509766 53.43042755126953 53.96603775024414
H 52.85892105102539 54.22771072387695 53.260433197021484
C 51.39765167236328 53.41407012939453 54.53420639038086
H 50.71480941772461 54.2076416015625 54.24173355102539
C 51.16353225708008 52.46687316894531 55.557247161865234
C 53.402503967285156 51.59134292602539 55.28815841674805
H 54.18547821044922 50.92286682128906 55.63694381713867
C 52.1711311340332 51.6002082824707 55.95920944213867
H 52.066566467285156 51.05935287475586 56.89628219604492
N 54.836822509765625 52.67744827270508 53.6942253112793
H 55.30298614501953 53.56500244140625 53.808353424072266
C 55.38227081298828 51.79248046875 52.82109451293945
O 54.67332458496094 50.997314453125 52.25522994995117
C 56.83259582519531 52.04509735107422 52.42007064819336
C 57.25615692138672 51.52787399291992 51.25509262084961
H 56.58451843261719 51.014163970947266 50.57204055786133
C 58.57441711425781 51.775299072265625 50.83820724487305
C 59.43193817138672 52.476402282714844 51.71004104614258
H 60.446205139160156 52.69219970703125 51.38405990600586
C 59.02006530761719 52.94560623168945 52.94253158569336
H 59.75309753417969 53.4998664855957 53.5230827331543
C 57.73219299316406 52.71307373046875 53.313175201416016
H 57.316612243652344 53.11631774902344 54.233097076416016
C 58.96443176269531 51.29469680786133 49.52570724487305
H 58.14569854736328 50.89624786376953 48.928348541259766
C 60.199920654296875 51.22991943359375 48.95388412475586
H 61.07268524169922 51.59793472290039 49.49125289916992
C 60.46656799316406 50.821571350097656 47.59531021118164
C 61.93090057373047 50.975257873535156 47.13251876831055
H 61.980552673339844 51.60824203491211 46.244075775146484
H 62.375404357910156 50.003196716308594 46.90896224975586
H 62.518959045410156 51.476261138916016 47.904300689697266
C 59.53092956542969 50.365234375 46.751651763916016
H 58.49547576904297 50.32434844970703 47.08644485473633
C 59.71312713623047 49.71815872192383 45.435916900634766
H 60.74372100830078 49.497867584228516 45.16157150268555
C 58.71046447753906 49.2240104675293 44.65937423706055
H 57.73046112060547 49.48064041137695 45.058956146240234
C 58.790000915527344 48.54629135131836 43.37246322631836
C 57.546241760253906 48.22932434082031 42.62282943725586
H 56.61299133300781 48.62067794799805 43.03312301635742
H 57.82661437988281 48.685611724853516 41.671165466308594
H 57.538063049316406 47.16143798828125 42.3947639465332
C 59.93187713623047 48.15054702758789 42.84652328491211
H 60.838829040527344 48.327762603759766 43.42267990112305
C 60.12763214111328 47.43749237060547 41.601470947265625
H 59.263221740722656 47.244136810302734 40.967960357666016
C 61.2567138671875 47.03384017944336 41.05427932739258
H 62.19200897216797 47.11701202392578 41.60585021972656
C 61.287933349609375 46.483333587646484 39.72250747680664
H 60.54303741455078 46.886539459228516 39.03804397583008
C 62.224830627441406 45.597625732421875 39.286590576171875
C 63.21783447265625 45.02266311645508 40.32257843017578
H 62.933265686035156 45.091243743896484 41.374610900878906
H 63.499671936035156 43.981990814208984 40.14925765991211
H 64.12461853027344 45.624168395996094 40.23092269897461
C 62.324928283691406 45.06155776977539 37.965736389160156
H 63.043701171875 44.252235412597656 37.84623718261719
C 61.789154052734375 45.65300369262695 36.83164596557617
H 61.179962158203125 46.55356979370117 36.89319610595703
C 61.958038330078125 45.07503128051758 35.52466583251953
H 62.202903747558594 44.0145149230957 35.489078521728516
C 61.895790100097656 45.66679000854492 34.3370475769043
C 61.940147399902344 47.155574798583984 34.27642822265625
H 62.39887237548828 47.69086837768555 33.442466735839844
H 60.91284942626953 47.49546813964844 34.423404693603516
H 62.50476837158203 47.60622787475586 35.09532165527344
C 61.866432189941406 45.13761901855469 32.9660758972168
H 61.680267333984375 45.93568420410156 32.2488899230957
C 61.96955871582031 43.85152053833008 32.49663162231445
H 62.08543395996094 43.08503723144531 33.2614860534668
C 61.7457275390625 43.35279846191406 31.10332489013672
C 62.158912658691406 44.0733757019043 30.023056030273438
C 62.99794006347656 45.32967758178711 30.043453216552734
H 63.53314208984375 45.385528564453125 29.09323501586914
H 62.31745910644531 46.18363952636719 30.05591583251953
H 63.73738098144531 45.361934661865234 30.846355438232422
C 62.03294372558594 43.5177116394043 28.675373077392578
H 62.9935302734375 43.15974807739258 28.299072265625
H 61.83561706542969 44.35120391845703 27.998016357421875
C 61.009307861328125 42.33065414428711 28.529739379882812
H 61.08930206298828 41.91481399536133 27.52318572998047
H 60.00587463378906 42.6862678527832 28.77288055419922
C 61.419273376464844 41.36335754394531 29.621726989746094
H 60.90869140625 40.39850997924805 29.59276580810547
H 62.489402770996094 41.155277252197266 29.558544158935547
C 61.298095703125 41.943721771240234 31.062522888183594
C 59.850364685058594 41.828033447265625 31.440723419189453
H 59.228248596191406 42.56492614746094 30.928447723388672
H 59.39472198486328 40.8900260925293 31.11669158935547
H 59.738975524902344 41.97801208496094 32.516624450683594
C 62.016807556152344 40.91514205932617 31.959609985351562
H 63.09608459472656 41.05699920654297 31.87301254272461
H 61.667030334472656 41.11717987060547 32.974151611328125
H 61.73146057128906 39.86549377441406 31.86331558227539
