207
Triad, Carotenoid-Porphyrin-C60
C 52.542659759521484 52.97956848144531 54.26112365722656
C 50.655269622802734 50.323516845703125 48.72621154785156
C 52.73092269897461 50.470680236816406 49.607177734375
C 53.79426193237305 50.77934265136719 51.70985412597656
C 48.33787155151367 50.43604278564453 49.326438903808594
C 49.42625045776367 50.965232849121094 48.61277770996094
C 49.77836990356445 48.76222229003906 50.266326904296875
C 52.393856048583984 48.845558166503906 51.393211364746094
C 51.45918655395508 51.1397705078125 55.08985900878906
C 48.52969741821289 49.35493469238281 50.163612365722656
C 53.203556060791016 51.88256072998047 53.78221130371094
C 47.11335372924805 52.65593719482422 51.888877868652344
C 47.58076095581055 51.54010772705078 49.75721740722656
C 48.13692092895508 53.01861572265625 54.040435791015625
C 49.09275436401367 51.04539489746094 54.87550354003906
C 49.040340423583984 52.444091796875 54.8917236328125
C 47.233097076416016 50.439208984375 51.838226318359375
C 50.039066314697266 48.33429718017578 51.52074432373047
C 51.28213882446289 48.46195983886719 52.1126708984375
C 50.246944427490234 49.289390563964844 54.171234130859375
C 52.015377044677734 54.596717834472656 49.8150634765625
C 50.5625114440918 54.35247802734375 49.3758544921875
C 52.66374588012695 53.21434783935547 49.559303283691406
C 51.76151657104492 52.52277374267578 48.718116760253906
C 50.034297943115234 54.266326904296875 54.05766296386719
C 49.448604583740234 54.58992004394531 50.17652893066406
C 53.78940200805664 51.91651916503906 52.48988342285156
C 47.75981521606445 53.78069305419922 51.43901062011719
C 48.233951568603516 52.72565460205078 49.30976867675781
C 48.76169967651367 54.14739227294922 53.56718444824219
C 53.52052688598633 52.56695556640625 50.399986267089844
C 47.41707992553711 50.90021514892578 53.16718292236328
C 48.26253128051758 50.23058319091797 54.038902282714844
C 51.37449264526367 48.90742492675781 53.431983947753906
C 48.88735580444336 48.652557373046875 52.28062438964844
C 52.22492599487305 55.118438720703125 51.267311096191406
C 50.88901138305664 55.223670959472656 52.02404022216797
C 53.00693130493164 54.143516540527344 52.15574645996094
C 51.09841537475586 54.75205993652344 53.317665100097656
C 50.2938117980957 50.39061737060547 54.958824157714844
C 50.5200309753418 53.12798309326172 48.63097381591797
C 53.65138626098633 53.007774353027344 51.665931701660156
C 52.365962982177734 54.12583923339844 53.42225646972656
C 53.57375717163086 51.200714111328125 50.40795135498047
C 50.19308090209961 53.191062927246094 54.918418884277344
C 49.61471939086914 55.01062774658203 51.489830017089844
C 48.2768440246582 53.85581970214844 50.15129089355469
C 51.853885650634766 51.10082244873047 48.73334503173828
C 49.39823532104492 52.34552764892578 48.591880798339844
C 48.96589279174805 49.13056182861328 53.61468505859375
C 48.57572555541992 54.54717254638672 52.243194580078125
C 51.41061782836914 52.533241271972656 55.002296447753906
C 50.84360122680664 49.18354034423828 49.46875
C 52.14329147338867 49.275909423828125 50.046417236328125
C 53.14052963256836 49.611244201660156 52.21544647216797
C 52.62289047241211 50.734046936035156 54.302154541015625
C 47.034610748291016 51.5216064453125 51.03557586669922
C 47.33913803100586 52.2928466796875 53.17253112792969
C 52.54252243041992 49.60487365722656 53.503761291503906
C 47.988407135009766 49.343963623046875 51.423927307128906
C 52.640316009521484 55.64469909667969 48.94673156738281
N 53.03782272338867 56.69621276855469 49.55317687988281
C 52.7749137878418 56.57551574707031 51.01446533203125
H 52.013912200927734 57.33268737792969 51.21992492675781
H 53.6251106262207 56.89214324951172 51.62403106689453
C 52.03054428100586 55.777984619140625 44.61042022705078
C 53.105533599853516 55.06182098388672 45.19482421875
H 53.71530532836914 54.48595428466797 44.50335693359375
C 53.25118637084961 55.00885772705078 46.567970275878906
H 53.99082565307617 54.35315704345703 47.020263671875
C 52.389217376708984 55.710060119628906 47.448211669921875
C 51.125911712646484 56.385276794433594 45.499061584472656
H 50.17384719848633 56.8087158203125 45.189453125
C 51.30771255493164 56.4539794921875 46.92823791503906
H 50.578189849853516 56.95580291748047 47.558746337890625
C 51.777652740478516 55.76454162597656 43.09674072265625
C 52.742244720458984 55.012969970703125 42.331329345703125
C 54.050716400146484 55.16516876220703 42.07225036621094
H 54.65752029418945 55.98011779785156 42.452880859375
C 54.42678451538086 54.139068603515625 41.149818420410156
H 55.43215560913086 54.08189392089844 40.74585723876953
C 53.281063079833984 53.43168640136719 40.79841613769531
N 52.31621170043945 53.91632080078125 41.64215850830078
H 51.41416549682617 53.46018981933594 41.62269592285156
C 53.14376449584961 52.52313995361328 39.69607925415039
H 54.078609466552734 52.23865509033203 39.21540069580078
C 52.0350227355957 51.913185119628906 39.27823257446289
C 51.96919631958008 51.290435791015625 38.05619812011719
H 52.773860931396484 50.93077850341797 37.42344284057617
C 50.62125015258789 51.06536865234375 37.79912567138672
H 50.18825149536133 50.57831573486328 36.93164825439453
C 49.93522262573242 51.50099182128906 38.913368225097656
N 50.79616928100586 52.12700653076172 39.74853515625
C 48.4989128112793 51.46788024902344 39.17018127441406
C 47.83396530151367 52.712135314941406 39.359596252441406
C 46.66800308227539 53.22076416015625 38.673561096191406
H 46.15940475463867 52.665199279785156 37.892601013183594
C 46.43613815307617 54.51787567138672 39.08280563354492
H 45.60203170776367 55.131752014160156 38.75927734375
C 47.49628829956055 54.89460754394531 39.98012924194336
N 48.14619064331055 53.72654724121094 40.111663818359375
H 48.88865280151367 53.57727813720703 40.78142547607422
C 47.72720718383789 56.09368133544922 40.501712799072266
H 47.04636764526367 56.90997314453125 40.26499557495117
C 48.778934478759766 56.54930877685547 41.41246032714844
C 49.06645584106445 57.78041076660156 42.089996337890625
H 48.46782302856445 58.68286895751953 42.02344512939453
C 50.26071548461914 57.624916076660156 42.751258850097656
H 50.87062454223633 58.3111572265625 43.32946014404297
C 50.59001541137695 56.28553771972656 42.62462615966797
N 49.77592086791992 55.67364501953125 41.74628448486328
C 46.17348861694336 47.82658386230469 38.82783889770508
C 45.57636642456055 48.96537780761719 39.285064697265625
H 44.50603103637695 49.01329803466797 39.468536376953125
C 46.38742446899414 50.13124084472656 39.48317337036133
H 45.93825912475586 51.01429748535156 39.93042755126953
C 47.7320442199707 50.15440368652344 39.097312927246094
C 47.51578140258789 47.845970153808594 38.583011627197266
H 47.98280715942383 46.883697509765625 38.38941192626953
C 48.32210159301758 48.95391845703125 38.705013275146484
H 49.4034309387207 48.874359130859375 38.62779235839844
N 45.36785125732422 46.66642761230469 38.65955352783203
H 44.60848617553711 46.596763610839844 39.3203125
C 45.53598403930664 45.53921890258789 37.91057205200195
O 46.36174392700195 45.56390380859375 37.016082763671875
C 44.7262077331543 44.34102249145508 38.205055236816406
C 44.3109245300293 44.09219741821289 39.484222412109375
H 44.5440788269043 44.751365661621094 40.31651306152344
C 43.725799560546875 42.828670501708984 39.748409271240234
C 43.589962005615234 41.907108306884766 38.717498779296875
H 43.151485443115234 40.93283462524414 38.91773223876953
C 44.09465026855469 42.11453628540039 37.43301773071289
H 44.093910217285156 41.421653747558594 36.59547424316406
C 44.65172576904297 43.41051483154297 37.21501541137695
H 45.21656036376953 43.6359977722168 36.3140754699707
C 43.410030364990234 42.33750915527344 41.13664245605469
H 43.537357330322266 43.0471305847168 41.95281982421875
C 42.90489959716797 41.19327163696289 41.691429138183594
H 42.710060119628906 40.32024383544922 41.07032012939453
C 42.6612434387207 41.04615783691406 43.1080322265625
C 41.43301010131836 40.38371658325195 43.43816375732422
H 41.68522644042969 39.33139419555664 43.58465576171875
H 40.68997573852539 40.57411193847656 42.660911560058594
H 41.01877212524414 40.794944763183594 44.36107635498047
C 43.534786224365234 41.490806579589844 44.048736572265625
H 44.450889587402344 41.91447448730469 43.639854431152344
C 43.404571533203125 41.32905960083008 45.56531524658203
H 42.81698989868164 40.51791000366211 45.99275207519531
C 44.139122009277344 42.14426040649414 46.31781768798828
H 44.734535217285156 42.90361404418945 45.81305694580078
C 44.313777923583984 42.159820556640625 47.78089904785156
C 43.73609161376953 41.02623748779297 48.50360107421875
H 44.212242126464844 40.134944915771484 48.08966064453125
H 44.080650329589844 40.938053131103516 49.53605651855469
H 42.64706039428711 40.97234344482422 48.443817138671875
C 45.07249450683594 43.06317901611328 48.418296813964844
H 45.50004196166992 43.81534957885742 47.7569580078125
C 45.40727233886719 43.18351745605469 49.87162780761719
H 44.795753479003906 42.63308334350586 50.585060119628906
C 46.4367790222168 43.89261245727539 50.31071472167969
H 47.09376907348633 44.33269500732422 49.56196594238281
C 46.799320220947266 43.9453010559082 51.709136962890625
H 46.004642486572266 43.527225494384766 52.32527160644531
C 47.839420318603516 44.41530990600586 52.335296630859375
C 49.033145904541016 44.87480545043945 51.54449462890625
H 49.59975051879883 43.990516662597656 51.245399475097656
H 48.731136322021484 45.4130744934082 50.643646240234375
H 49.636478424072266 45.524452209472656 52.18199157714844
C 47.95730972290039 44.62873840332031 53.78057098388672
H 48.78212356567383 45.19046401977539 54.21653747558594
C 47.15250015258789 43.98372268676758 54.64656066894531
H 46.32731246948242 43.32416534423828 54.38203430175781
C 47.37815475463867 43.934444427490234 56.089332580566406
H 48.163753509521484 44.586185455322266 56.46879577636719
C 46.69510269165039 43.24108123779297 57.07026672363281
C 45.61366653442383 42.30219650268555 56.689979553222656
H 46.058841705322266 41.42159652709961 56.22217559814453
H 45.05696105957031 41.95222854614258 57.561790466308594
H 44.899139404296875 42.67624282836914 55.953773498535156
C 47.012577056884766 43.20196533203125 58.48536682128906
H 46.23246383666992 43.09323501586914 59.23737335205078
C 48.2282829284668 43.12632751464844 59.02745056152344
H 49.0772819519043 43.147178649902344 58.34576416015625
C 48.588802337646484 43.17555618286133 60.486968994140625
C 48.045711517333984 44.0712890625 61.33172607421875
C 46.93296432495117 45.03046798706055 60.96410369873047
H 47.153743743896484 45.37229537963867 59.95075225830078
H 46.074153900146484 44.35874938964844 60.903282165527344
H 46.7015495300293 45.93334197998047 61.53306579589844
C 48.44430923461914 44.18623733520508 62.72193145751953
H 47.73957443237305 43.61588668823242 63.33062744140625
H 48.363956451416016 45.246543884277344 62.970436096191406
C 49.89738845825195 43.63501739501953 63.01823425292969
H 50.119991302490234 43.53746032714844 64.08284759521484
H 50.71170425415039 44.27293014526367 62.668357849121094
C 49.788631439208984 42.2527961730957 62.4029541015625
H 50.65239334106445 41.74376678466797 62.83570098876953
H 48.89531326293945 41.752140045166016 62.78215789794922
C 49.67918014526367 42.263675689697266 60.924835205078125
C 51.006221771240234 42.56977081298828 60.267608642578125
H 51.28597640991211 43.61368942260742 60.423912048339844
H 51.8365364074707 41.98716735839844 60.672119140625
H 50.87360763549805 42.29182815551758 59.219932556152344
C 49.52224349975586 40.806304931640625 60.578880310058594
H 49.43142318725586 40.637969970703125 59.50376892089844
H 50.30070877075195 40.193511962890625 61.038177490234375
H 48.64669418334961 40.31393814086914 61.00718688964844
