207
Triad, Carotenoid-Porphyrin-C60
C 36.84943771362305 51.639068603515625 41.53804016113281
C 43.08879470825195 52.31932830810547 42.858299255371094
C 41.35498046875 53.48114776611328 43.55876541137695
C 39.00657653808594 53.28553009033203 43.89595413208008
C 43.5088996887207 50.22480010986328 41.80303192138672
C 43.54592514038086 51.58985137939453 41.75645065307617
C 42.58509826660156 50.25022888183594 44.02375030517578
C 40.48560333251953 51.78276062011719 45.114715576171875
C 37.10219955444336 49.91558074951172 42.869056701660156
C 43.05351257324219 49.531898498535156 42.9437255859375
C 37.24104690551758 52.13002014160156 42.779754638671875
C 41.33728790283203 48.574668884277344 39.53831100463867
C 43.203697204589844 49.6910400390625 40.562313079833984
C 38.96839904785156 48.38201904296875 39.78050231933594
C 38.3261833190918 47.885467529296875 42.09208679199219
C 38.000919342041016 48.36952209472656 40.776641845703125
C 41.915924072265625 47.95140838623047 41.5604133605957
C 41.500648498535156 49.633697509765625 44.57925033569336
C 40.437740325927734 50.389686584472656 45.03969955444336
C 38.83442306518555 48.766319274902344 44.06777572631836
C 40.3968391418457 54.130210876464844 39.5855712890625
C 41.457340240478516 53.11650085449219 39.193050384521484
C 40.73181915283203 54.35893249511719 41.000919342041016
C 41.943138122558594 53.778778076171875 41.27341842651367
C 37.709930419921875 50.136878967285156 39.384254455566406
C 41.22631072998047 51.93273162841797 38.52113342285156
C 38.0841178894043 53.18321990966797 42.88938522338867
C 41.17307662963867 49.65681457519531 38.702735900878906
C 43.06706619262695 50.807777404785156 39.633907318115234
C 38.79803466796875 49.41864776611328 38.88948440551758
C 39.790985107421875 54.288848876953125 42.04465866088867
C 40.59394073486328 47.486083984375 41.346920013427734
C 39.639183044433594 47.50004577636719 42.36809158325195
C 39.126991271972656 49.95524597167969 44.794498443603516
C 41.30278396606445 48.47021484375 43.8551025390625
C 38.890445709228516 53.672447204589844 39.26853561401367
C 38.76896667480469 52.27699279785156 38.76202392578125
C 38.02384948730469 53.50615692138672 40.50309753417969
C 37.76806640625 51.53736114501953 39.352394104003906
C 37.8489990234375 48.75395965576172 43.108306884765625
C 42.400672912597656 53.060157775878906 40.174217224121094
C 38.50442886352539 53.85010528564453 41.764007568359375
C 37.255577087402344 52.307518005371094 40.395118713378906
C 40.05357360839844 53.938995361328125 43.33530807495117
C 37.1800651550293 49.480674743652344 40.50997543334961
C 39.893306732177734 51.51268005371094 38.28739929199219
C 41.98965835571289 50.761009216308594 38.74814224243164
C 42.2955322265625 53.46611785888672 42.55747604370117
C 43.25933837890625 51.94255065917969 40.41933822631836
C 39.9600830078125 48.043251037597656 43.603851318359375
C 39.88648223876953 50.093299865722656 38.37610626220703
C 36.789154052734375 50.28083801269531 41.567378997802734
C 42.58053207397461 51.67719268798828 43.99161911010742
C 41.562557220458984 52.449256896972656 44.47929000854492
C 39.1750373840332 52.25226593017578 44.85768508911133
C 37.374656677246094 51.03977966308594 43.63538360595703
C 42.365108489990234 48.594383239746094 40.478004455566406
C 40.26811981201172 47.86961364746094 40.06531524658203
C 38.325775146484375 51.14250946044922 44.65421676635742
C 42.24219512939453 48.42255401611328 42.81544876098633
C 40.4616584777832 55.47321319580078 38.812660217285156
N 39.45371627807617 55.72502899169922 38.129207611083984
C 38.4459228515625 54.64704895019531 38.15116500854492
H 38.52873992919922 54.18439483642578 37.16437911987305
H 37.40943145751953 54.951393127441406 38.31766128540039
C 44.02247619628906 57.97669219970703 38.979061126708984
C 42.88408660888672 58.17713165283203 39.794700622558594
H 42.9640998840332 58.879730224609375 40.620243072509766
C 41.700050354003906 57.456459045410156 39.58047866821289
H 40.87118148803711 57.528846740722656 40.27997970581055
C 41.60596466064453 56.37676239013672 38.75397491455078
C 43.86760711669922 56.93255615234375 38.036781311035156
H 44.78694534301758 56.800445556640625 37.47203826904297
C 42.696319580078125 56.218994140625 37.85707473754883
H 42.78014373779297 55.429603576660156 37.114498138427734
C 45.3443489074707 58.7322998046875 39.203834533691406
C 45.33990478515625 59.580291748046875 40.372066497802734
C 44.76271438598633 60.81719207763672 40.632633209228516
H 44.22655487060547 61.33937072753906 39.847084045410156
C 45.078121185302734 61.17894744873047 41.972721099853516
H 44.76127624511719 62.14471435546875 42.35236740112305
C 45.854827880859375 60.1741943359375 42.4930305480957
N 46.06290054321289 59.289222717285156 41.49684143066406
H 46.57017135620117 58.4202880859375 41.595558166503906
C 46.62456130981445 60.21000671386719 43.690673828125
H 46.35447311401367 60.973876953125 44.41831970214844
C 47.64488220214844 59.362388610839844 44.166839599609375
C 48.26216506958008 59.3323974609375 45.46799087524414
H 48.101806640625 60.07360076904297 46.24396514892578
C 48.99897384643555 58.193939208984375 45.557865142822266
H 49.634727478027344 57.82624816894531 46.35651779174805
C 48.8637580871582 57.50483703613281 44.221282958984375
N 48.019561767578125 58.21923065185547 43.44926452636719
C 49.37273406982422 56.220733642578125 43.75053405761719
C 49.9353141784668 55.99995422363281 42.48453903198242
C 51.28512191772461 55.65393829345703 42.05428695678711
H 52.122318267822266 55.27900695800781 42.633731842041016
C 51.3807258605957 55.91302490234375 40.7166633605957
H 52.28609848022461 55.828346252441406 40.124755859375
C 50.15513229370117 56.36561584472656 40.13801193237305
N 49.361873626708984 56.305274963378906 41.23301315307617
H 48.37952423095703 56.46696472167969 41.05704116821289
C 49.83094787597656 56.83185577392578 38.92552947998047
H 50.580074310302734 56.65179443359375 38.15591049194336
C 48.55706787109375 57.41706848144531 38.563690185546875
C 48.230403900146484 57.87284851074219 37.266544342041016
H 48.93401336669922 57.95177459716797 36.444393157958984
C 46.93773651123047 58.36798858642578 37.48924255371094
H 46.395748138427734 58.799652099609375 36.654293060302734
C 46.53003692626953 58.20842742919922 38.71971130371094
N 47.52227020263672 57.726287841796875 39.404579162597656
C 49.32936477661133 52.70491027832031 46.335453033447266
C 49.932640075683594 52.65351104736328 45.08325958251953
H 50.2611198425293 51.664581298828125 44.773929595947266
C 50.03506851196289 53.82323455810547 44.311363220214844
H 50.5037841796875 53.70075988769531 43.338287353515625
C 49.449012756347656 55.01312255859375 44.66448211669922
C 48.774261474609375 53.88031768798828 46.72943878173828
H 48.23581314086914 53.769371032714844 47.66716384887695
C 48.812381744384766 55.009788513183594 45.90495300292969
H 48.26458740234375 55.8795166015625 46.258602142333984
N 49.128047943115234 51.48664855957031 47.11056900024414
H 48.31182861328125 50.93310546875 46.8973503112793
C 49.82533264160156 51.10991668701172 48.18954086303711
O 50.8279914855957 51.82264709472656 48.47490310668945
C 49.445308685302734 49.87019348144531 48.90366744995117
C 50.38734436035156 49.3048095703125 49.690338134765625
H 51.34646987915039 49.813941955566406 49.73955154418945
C 50.04331970214844 48.10298156738281 50.36912536621094
C 48.81514358520508 47.497825622558594 50.08775329589844
H 48.62808609008789 46.55204772949219 50.58983612060547
C 47.828800201416016 48.109344482421875 49.332679748535156
H 46.80870056152344 47.734352111816406 49.35133743286133
C 48.17449951171875 49.333717346191406 48.71772766113281
H 47.45200729370117 49.92676544189453 48.162872314453125
C 50.882747650146484 47.66856384277344 51.463401794433594
H 51.615238189697266 48.45306396484375 51.64763641357422
C 50.892723083496094 46.535064697265625 52.253719329833984
H 50.063804626464844 45.831581115722656 52.19100570678711
C 51.816551208496094 46.03404235839844 53.27805709838867
C 52.83248519897461 46.994789123535156 53.77897262573242
H 52.69032287597656 47.047340393066406 54.86040496826172
H 52.62699508666992 48.00091552734375 53.407569885253906
H 53.83586883544922 46.824310302734375 53.38321304321289
C 51.73213577270508 44.770408630371094 53.74358367919922
H 50.9582633972168 44.17805480957031 53.25761032104492
C 52.57080078125 44.200416564941406 54.817718505859375
H 53.5738525390625 44.62144470214844 54.86812210083008
C 52.22909164428711 43.111793518066406 55.499916076660156
H 51.21253204345703 42.76146697998047 55.327301025390625
C 52.94050979614258 42.23408508300781 56.430450439453125
C 51.998382568359375 41.52783966064453 57.410457611083984
H 50.97594451904297 41.85723876953125 57.21403884887695
H 51.955360412597656 40.445701599121094 57.27051544189453
H 52.32252883911133 41.791419982910156 58.419376373291016
C 54.25178146362305 42.25371551513672 56.6225700378418
H 54.83856964111328 42.9281005859375 56.000633239746094
C 55.060081481933594 41.64830780029297 57.722999572753906
H 54.605194091796875 40.965538024902344 58.43912124633789
C 56.404083251953125 41.91107940673828 57.86691665649414
H 56.87041473388672 42.64863586425781 57.21540832519531
C 57.256072998046875 41.30043029785156 58.91236114501953
H 56.68197250366211 41.014198303222656 59.79236602783203
C 58.57366943359375 41.077178955078125 58.929161071777344
C 59.416236877441406 41.562416076660156 57.77693557739258
H 60.41630935668945 41.12451934814453 57.75322341918945
H 59.049156188964844 41.372894287109375 56.76609802246094
H 59.403934478759766 42.65351104736328 57.81962203979492
C 59.3243293762207 40.375282287597656 59.99691390991211
H 60.40248107910156 40.375404357910156 59.84359359741211
C 58.82828140258789 39.70507049560547 61.029624938964844
H 57.75172805786133 39.541290283203125 61.01805877685547
C 59.62024688720703 39.059486389160156 61.971920013427734
H 60.67832565307617 39.066017150878906 61.71434783935547
C 59.240333557128906 38.34336853027344 63.0592041015625
C 57.8882942199707 38.195159912109375 63.555908203125
H 57.43123245239258 37.22557830810547 63.347408294677734
H 57.91165542602539 38.36503601074219 64.63436126708984
H 57.27430725097656 39.006683349609375 63.159793853759766
C 60.122833251953125 37.612396240234375 63.973541259765625
H 61.15612030029297 37.95115661621094 63.91460037231445
C 59.82488250732422 36.534114837646484 64.65794372558594
H 58.863826751708984 36.02812957763672 64.57875061035156
C 60.63539505004883 35.74388122558594 65.55046844482422
C 61.5908203125 36.29377365112305 66.39738464355469
C 61.908424377441406 37.76165771484375 66.63442993164062
H 62.19814682006836 37.868194580078125 67.68189239501953
H 62.7358283996582 38.050010681152344 65.98272705078125
H 60.98090744018555 38.28562927246094 66.39436340332031
C 62.43814468383789 35.487518310546875 67.33281707763672
H 61.9378776550293 35.56364822387695 68.30049896240234
H 63.39570236206055 36.00296401977539 67.43215942382812
C 62.6156005859375 34.02621841430664 66.89315032958984
H 63.192630767822266 33.47137451171875 67.63587951660156
H 63.12358856201172 33.810585021972656 65.95085906982422
C 61.1640625 33.53294372558594 66.72998046875
H 61.11903762817383 32.471920013427734 66.47566986083984
H 60.60366439819336 33.79655075073242 67.62938690185547
C 60.466766357421875 34.22277069091797 65.53092193603516
C 60.871700286865234 33.59856414794922 64.1460952758789
H 60.64461898803711 32.532691955566406 64.0768051147461
H 60.40311050415039 34.17799377441406 63.347877502441406
H 61.95610427856445 33.6689567565918 64.03843688964844
C 59.02186584472656 33.768131256103516 65.7452392578125
H 59.009376525878906 32.68180847167969 65.85570526123047
H 58.545494079589844 34.133262634277344 66.6574935913086
H 58.42465591430664 33.987796783447266 64.8577880859375
