207
Triad, Carotenoid-Porphyrin-C60
C 60.154930114746094 41.63884735107422 63.84420394897461
C 60.658546447753906 47.250648498535156 60.79343032836914
C 59.13507080078125 46.703704833984375 62.32477951049805
C 58.891204833984375 44.97571563720703 64.00077819824219
C 62.83678436279297 46.64374542236328 60.05001449584961
C 61.51206970214844 46.81340789794922 59.8120002746582
C 62.50859832763672 47.4595947265625 62.279781341552734
C 60.689483642578125 46.55103302001953 64.13678741455078
C 61.983421325683594 42.53217315673828 64.87649536132812
C 63.32984924316406 46.91663360595703 61.2750358581543
C 59.71345520019531 42.72142028808594 64.56758880615234
C 64.10556030273438 43.30833435058594 59.721187591552734
C 63.29035186767578 45.57371520996094 59.287471771240234
C 63.873130798339844 41.695472717285156 61.46866226196289
C 64.00334167480469 42.67206573486328 63.69269943237305
C 63.61205291748047 41.626747131347656 62.8501091003418
C 64.7038803100586 44.99885559082031 61.09407424926758
C 62.99303436279297 46.936004638671875 63.48232650756836
C 62.043861389160156 46.42467498779297 64.3964614868164
C 63.36896514892578 44.51209259033203 64.7385482788086
C 58.4378662109375 43.36787414550781 59.68764114379883
C 59.64129638671875 43.844505310058594 58.84366989135742
C 58.23207092285156 44.565345764160156 60.6198616027832
C 59.033531188964844 45.60111999511719 60.15055465698242
C 61.87114715576172 40.80608367919922 61.78829574584961
C 60.78374481201172 43.04069519042969 58.71213912963867
C 58.76274871826172 43.5977783203125 63.9725227355957
C 63.01322937011719 42.717185974121094 59.036678314208984
C 62.202667236328125 44.98943328857422 58.67409896850586
C 62.77008819580078 41.12351989746094 60.80928421020508
C 58.05128479003906 44.527618408203125 61.99978256225586
C 64.95024871826172 43.83131408691406 61.77080154418945
C 64.68949890136719 43.73577880859375 63.13326644897461
C 62.23628234863281 45.243011474609375 65.09937286376953
C 64.10440826416016 46.091041564941406 63.19611740112305
C 58.645896911621094 41.99263000488281 60.468379974365234
C 59.9765625 41.331207275390625 60.32344436645508
C 58.600563049316406 42.088539123535156 62.00800704956055
C 60.50328063964844 40.9561767578125 61.57588577270508
C 63.21287536621094 43.123817443847656 64.72232818603516
C 59.82331848144531 45.216590881347656 59.06967544555664
C 58.302467346191406 43.35176086425781 62.67763900756836
C 59.64674377441406 41.3466796875 62.57597732543945
C 58.43669128417969 45.57402038574219 62.829341888427734
C 62.368431091308594 41.04932403564453 63.07187271118164
C 60.91938018798828 41.864044189453125 59.43777084350586
C 62.07190704345703 43.604736328125 58.60916519165039
C 59.41712188720703 46.689170837402344 60.9812126159668
C 61.082130432128906 45.8448486328125 58.90114974975586
C 64.2766342163086 44.886016845703125 63.82503128051758
C 62.30266571044922 41.6802978515625 59.61189651489258
C 61.54192352294922 41.46563720703125 64.1006088256836
C 61.16157531738281 47.583343505859375 62.06642532348633
C 60.232765197753906 47.183441162109375 63.03091049194336
C 59.990867614746094 45.48493957519531 64.72142028808594
C 60.84851837158203 43.241455078125 65.1917953491211
C 64.2502670288086 44.71943664550781 59.830570220947266
C 64.54649353027344 42.761199951171875 60.91987991333008
C 60.95149230957031 44.638641357421875 65.3094711303711
C 64.25801849365234 46.099159240722656 61.817501068115234
C 57.27165222167969 42.98887634277344 58.84275436401367
N 56.775421142578125 41.793495178222656 58.904056549072266
C 57.723419189453125 40.994171142578125 59.79288101196289
H 58.281898498535156 40.221885681152344 59.25779342651367
H 57.08464050292969 40.4688720703125 60.50749588012695
C 54.894020080566406 45.815277099609375 56.62977981567383
C 56.20941162109375 45.58988952636719 56.29708480834961
H 56.56641387939453 46.08362579345703 55.39689254760742
C 56.97119903564453 44.61400604248047 56.94731521606445
H 57.98381805419922 44.3702392578125 56.63625717163086
C 56.435028076171875 43.97296142578125 58.11471176147461
C 54.30553436279297 45.02412414550781 57.71696853637695
H 53.24908447265625 45.12922668457031 57.950260162353516
C 55.093894958496094 44.122413635253906 58.48911666870117
H 54.772186279296875 43.603515625 59.38845443725586
C 53.98675537109375 46.73506164550781 55.8806266784668
C 54.59442901611328 47.514244079589844 54.85551071166992
C 55.785614013671875 48.22284698486328 54.8493766784668
H 56.454994201660156 48.550445556640625 55.637935638427734
C 55.89176940917969 48.80409240722656 53.55672836303711
H 56.699913024902344 49.454139709472656 53.238033294677734
C 54.749542236328125 48.64476776123047 52.897945404052734
N 53.96269226074219 47.83831787109375 53.65188980102539
H 53.03118896484375 47.54493713378906 53.390445709228516
C 54.318328857421875 49.26887512207031 51.6572380065918
H 55.072792053222656 49.88915252685547 51.17561721801758
C 53.121620178222656 49.02546691894531 50.99863815307617
C 52.65509796142578 49.91168975830078 50.0788459777832
H 53.10401153564453 50.868675231933594 49.8341178894043
C 51.4228630065918 49.475318908691406 49.72371292114258
H 50.73895263671875 50.056556701660156 49.114078521728516
C 51.175994873046875 48.19860076904297 50.40907669067383
N 52.2183837890625 47.996315002441406 51.2280158996582
C 49.87645721435547 47.45465087890625 50.50850296020508
C 49.15367126464844 47.39606475830078 51.687198638916016
C 47.77233123779297 47.79486083984375 52.05191421508789
H 47.00650405883789 48.06379699707031 51.331905364990234
C 47.60868453979492 47.68408966064453 53.425357818603516
H 46.7116584777832 47.95862579345703 53.970516204833984
C 48.88430404663086 47.38475036621094 54.0118522644043
N 49.64388656616211 47.17695617675781 52.93899154663086
H 50.55718994140625 46.75895690917969 53.05422592163086
C 49.18910598754883 47.47235107421875 55.30611801147461
H 48.39010238647461 47.713653564453125 56.005611419677734
C 50.47819900512695 47.260406494140625 55.97390365600586
C 50.875328063964844 47.465728759765625 57.38192367553711
H 50.161869049072266 47.74803161621094 58.14906692504883
C 52.19240188598633 47.26837158203125 57.4544792175293
H 52.73509979248047 47.37805938720703 58.387577056884766
C 52.64982604980469 46.850555419921875 56.21529769897461
N 51.60947799682617 46.86885070800781 55.347103118896484
C 48.22580337524414 46.00627899169922 46.728633880615234
C 47.54710388183594 45.78563690185547 47.88657760620117
H 46.593666076660156 45.283905029296875 47.74238204956055
C 48.02916717529297 46.234771728515625 49.19374465942383
H 47.40558624267578 46.05706024169922 50.0661735534668
C 49.26250457763672 46.92347717285156 49.25578689575195
C 49.44187927246094 46.716819763183594 46.86159133911133
H 50.06087112426758 46.84986877441406 45.97800827026367
C 49.94811248779297 47.13740539550781 48.066287994384766
H 50.93450164794922 47.59404754638672 48.075801849365234
N 47.703155517578125 45.62866973876953 45.417911529541016
H 48.178226470947266 44.858734130859375 44.97115707397461
C 46.67790222167969 46.24053192138672 44.81412124633789
O 45.99785232543945 47.09501647949219 45.411617279052734
C 46.49564743041992 45.86968231201172 43.41646957397461
C 45.5489501953125 46.533668518066406 42.63890075683594
H 45.03160858154297 47.349220275878906 43.1377067565918
C 45.3787727355957 46.26177215576172 41.31880569458008
C 46.08218002319336 45.144859313964844 40.7474250793457
H 45.79753875732422 44.94781494140625 39.71702575683594
C 46.993560791015625 44.44017028808594 41.511478424072266
H 47.511653900146484 43.6015625 41.053340911865234
C 47.21441650390625 44.85614013671875 42.79728317260742
H 48.04271697998047 44.35200500488281 43.28853988647461
C 44.54446792602539 47.10758972167969 40.4587516784668
H 44.01526641845703 47.878143310546875 41.017417907714844
C 44.33934783935547 47.064414978027344 39.1063117980957
H 45.004486083984375 46.386192321777344 38.57383346557617
C 43.45421600341797 47.86680603027344 38.290889739990234
C 43.68830871582031 47.82579040527344 36.7724609375
H 42.77655029296875 47.970314025878906 36.18912887573242
H 44.050418853759766 46.83063507080078 36.50596618652344
H 44.34642791748047 48.666412353515625 36.54289627075195
C 42.40658950805664 48.56189727783203 38.787174224853516
H 42.26103591918945 48.48805236816406 39.86387252807617
C 41.53050231933594 49.540679931640625 38.165496826171875
H 41.65873336791992 49.78736877441406 37.112586975097656
C 40.41014862060547 49.947662353515625 38.7844352722168
H 40.29429626464844 49.57086181640625 39.79957962036133
C 39.35687255859375 50.75635528564453 38.252342224121094
C 38.38209915161133 51.361839294433594 39.25941848754883
H 38.62907028198242 51.209877014160156 40.31221008300781
H 38.38938903808594 52.44139862060547 39.09520721435547
H 37.34614944458008 51.01653289794922 39.25312042236328
C 39.24959945678711 51.155311584472656 36.98172378540039
H 40.08174514770508 50.81703186035156 36.3660774230957
C 38.25822830200195 51.942840576171875 36.27450942993164
H 37.23431396484375 51.92958068847656 36.64512252807617
C 38.46537399291992 52.68049621582031 35.216461181640625
H 39.476898193359375 52.866493225097656 34.85848617553711
C 37.369850158691406 53.46607208251953 34.59629440307617
H 36.461631774902344 53.61939239501953 35.17728805541992
C 37.40241241455078 54.036170959472656 33.39266586303711
C 38.50445556640625 53.855857849121094 32.37761688232422
H 39.43962097167969 53.765960693359375 32.93424987792969
H 38.30449676513672 52.98442840576172 31.750654220581055
H 38.598854064941406 54.77143859863281 31.790021896362305
C 36.26146697998047 54.71038055419922 32.81696701049805
H 36.15026092529297 54.682884216308594 31.734010696411133
C 35.395748138427734 55.402503967285156 33.51338577270508
H 35.475746154785156 55.50756072998047 34.5943489074707
C 34.273250579833984 56.06934356689453 32.93012619018555
H 34.2629280090332 56.304527282714844 31.86687660217285
C 33.10899353027344 56.56470489501953 33.55292510986328
C 32.71342086791992 56.286956787109375 34.980010986328125
H 31.625049591064453 56.231170654296875 35.04922866821289
H 33.078041076660156 55.28954315185547 35.234352111816406
H 33.1518440246582 56.99730682373047 35.68403244018555
C 32.00192642211914 57.13373565673828 32.77359390258789
H 32.089420318603516 56.87531280517578 31.719327926635742
C 31.035381317138672 57.94109344482422 33.17571258544922
H 31.02328109741211 58.381446838378906 34.171634674072266
C 30.031028747558594 58.64567565917969 32.32868576049805
C 29.202770233154297 58.04253387451172 31.399152755737305
C 29.131267547607422 56.55809020996094 31.33882713317871
H 29.18594741821289 56.13655090332031 32.344696044921875
H 28.120864868164062 56.240966796875 31.072397232055664
H 29.917781829833984 56.082298278808594 30.749338150024414
C 28.397903442382812 58.79711151123047 30.362199783325195
H 27.571060180664062 58.17668151855469 30.01026725769043
H 29.050098419189453 58.96778106689453 29.503145217895508
C 28.088706970214844 60.25791931152344 30.818696975708008
H 27.284549713134766 60.23565673828125 31.557146072387695
H 27.777320861816406 60.87762451171875 29.975210189819336
C 29.440044403076172 60.95271301269531 31.287752151489258
H 30.196266174316406 60.97132873535156 30.500192642211914
H 29.209365844726562 61.980560302734375 31.57546043395996
C 29.952289581298828 60.20771026611328 32.518310546875
C 31.271053314208984 60.83062744140625 32.80447769165039
H 31.227550506591797 61.918739318847656 32.885562896728516
H 31.48696517944336 60.497093200683594 33.821632385253906
H 32.02080154418945 60.40038299560547 32.13722229003906
C 29.10403823852539 60.628662109375 33.719356536865234
H 28.962467193603516 61.710716247558594 33.67967224121094
H 28.086688995361328 60.23253631591797 33.695838928222656
H 29.45556640625 60.336883544921875 34.71120071411133
