207
Triad, Carotenoid-Porphyrin-C60
C 46.59620666503906 69.10001373291016 43.405433654785156
C 48.93523025512695 66.7175064086914 48.95240783691406
C 49.83740997314453 66.71556091308594 46.89042663574219
C 49.68280029296875 67.93605041503906 44.698734283447266
C 47.187618255615234 67.92556762695312 50.08115768432617
C 47.699432373046875 66.72332763671875 49.6165657043457
C 49.11396789550781 69.13713836669922 49.25917434692383
C 50.28291702270508 69.11537170410156 46.707061767578125
C 47.13324737548828 70.97166442871094 44.348419189453125
C 47.926387786865234 69.1231460571289 50.00221633911133
C 47.96055603027344 69.12078857421875 43.52275848388672
C 44.10750198364258 69.2010498046875 48.85374069213867
C 45.83721160888672 67.93170166015625 49.95271301269531
C 43.93777084350586 70.38005065917969 46.745609283447266
C 45.891502380371094 71.75489807128906 46.278961181640625
C 44.80903625488281 71.06133270263672 45.80953598022461
C 45.903114318847656 70.3747787475586 49.58345413208008
C 49.24969482421875 70.2885513305664 48.55339813232422
C 49.7748908996582 70.29551696777344 47.24539566040039
C 48.08800506591797 71.76424407958984 46.468231201171875
C 46.17902755737305 64.95205688476562 45.63551712036133
C 45.721961975097656 65.2298355102539 47.02193832397461
C 47.69566345214844 65.2423324584961 45.839359283447266
C 47.98490524291992 65.25055694580078 47.231075286865234
C 44.157047271728516 69.19627380371094 44.802207946777344
C 44.5918083190918 66.05795288085938 47.27227020263672
C 48.61606979370117 67.92135620117188 43.78995895385742
C 43.79123306274414 67.98392486572266 48.178279876708984
C 45.53070068359375 66.73904418945312 49.302005767822266
C 43.64692687988281 69.144287109375 46.08416748046875
C 48.45872497558594 66.02398681640625 45.028167724609375
C 45.304012298583984 71.13725280761719 48.586280822753906
C 46.14461898803711 71.79727172851562 47.6532096862793
C 49.23127365112305 71.04542541503906 46.18697738647461
C 48.14591598510742 71.05743408203125 48.803524017333984
C 45.52363586425781 65.78888702392578 44.498687744140625
C 44.423866271972656 66.78244018554688 44.97665786743164
C 46.465694427490234 66.72997283935547 43.76075744628906
C 44.65204620361328 67.98884582519531 44.33749008178711
C 47.035438537597656 71.66231536865234 45.542930603027344
C 46.784019470214844 65.20380401611328 47.962100982666016
C 47.874053955078125 66.72374725341797 43.94819641113281
C 45.83562088012695 67.94632720947266 43.568702697753906
C 49.497432708740234 66.7827377319336 45.49224853515625
C 44.86246871948242 70.35740661621094 44.5960578918457
C 43.991302490234375 66.7712173461914 46.26309585571289
C 44.444461822509766 66.80603790283203 48.457305908203125
C 49.073760986328125 66.01422882080078 47.77558517456055
C 46.64727020263672 65.98800659179688 49.096004486083984
C 47.57243728637695 71.7178726196289 47.7679328918457
C 43.59077072143555 67.9838638305664 46.8127555847168
C 46.07918930053711 70.2590560913086 43.90586471557617
C 49.5867919921875 67.93697357177734 48.736080169677734
C 50.18065643310547 67.91807556152344 47.434104919433594
C 50.03683853149414 69.13774108886719 45.35579299926758
C 48.35377883911133 70.26040649414062 44.095558166503906
C 45.17208480834961 69.17173767089844 49.748043060302734
C 44.190093994140625 70.43836975097656 48.11740493774414
C 49.40928649902344 70.33562469482422 45.025333404541016
C 47.319862365722656 70.33952331542969 49.690025329589844
C 45.89304733276367 63.49334716796875 45.18115234375
N 45.29347610473633 63.45376205444336 44.06094741821289
C 44.82536315917969 64.77033233642578 43.588836669921875
H 43.7394905090332 64.88931274414062 43.625877380371094
H 45.16474914550781 64.86640167236328 42.55431365966797
C 47.87531661987305 60.11369323730469 47.045536041259766
C 46.942832946777344 60.95331954956055 47.71342468261719
H 46.80320739746094 60.936092376708984 48.791282653808594
C 46.26395797729492 61.97769546508789 47.092742919921875
H 45.59503173828125 62.63459777832031 47.642818450927734
C 46.44047927856445 62.254878997802734 45.72221755981445
C 48.017452239990234 60.40092468261719 45.660011291503906
H 48.66861343383789 59.72013854980469 45.11771011352539
C 47.268775939941406 61.42646789550781 44.956546783447266
H 47.214805603027344 61.501285552978516 43.873470306396484
C 48.59204864501953 59.06109619140625 47.86255645751953
C 48.19606018066406 58.80646514892578 49.23402786254883
C 48.36806869506836 59.50140380859375 50.427650451660156
H 48.85800552368164 60.46812438964844 50.47895431518555
C 47.99437713623047 58.7332649230957 51.53606414794922
H 48.00762176513672 58.95343780517578 52.59840774536133
C 47.64030838012695 57.50779342651367 51.02127456665039
N 47.70923614501953 57.625118255615234 49.68887710571289
H 47.75005340576172 56.842079162597656 49.05067443847656
C 47.33575439453125 56.2887077331543 51.77159881591797
H 47.27635192871094 56.2886848449707 52.85898208618164
C 47.11790084838867 54.98193359375 51.2961311340332
C 46.08294677734375 54.13019561767578 51.88575744628906
H 45.29436111450195 54.45583724975586 52.55607223510742
C 46.24427795410156 52.931068420410156 51.191837310791016
H 45.64440155029297 52.02720260620117 51.17171859741211
C 47.449283599853516 53.079986572265625 50.419960021972656
N 48.03124237060547 54.30002212524414 50.58656692504883
C 48.1418571472168 52.09693145751953 49.48941421508789
C 49.044639587402344 52.41904067993164 48.51581573486328
C 50.289493560791016 51.776947021484375 48.110321044921875
H 50.559608459472656 50.76557540893555 48.39561080932617
C 51.047122955322266 52.61792755126953 47.270931243896484
H 52.00089645385742 52.42619323730469 46.79052734375
C 50.4525146484375 53.86806869506836 47.25153732299805
N 49.33795166015625 53.67242431640625 47.941749572753906
H 48.709747314453125 54.46350860595703 47.98261642456055
C 50.97327423095703 54.951683044433594 46.60232925415039
H 51.9114875793457 54.7740478515625 46.078765869140625
C 50.61482238769531 56.353633880615234 46.69710922241211
C 51.22920227050781 57.51850128173828 46.08521270751953
H 52.08253860473633 57.415733337402344 45.423030853271484
C 50.48324203491211 58.61886215209961 46.50251007080078
H 50.66682815551758 59.64090347290039 46.18794250488281
C 49.51521301269531 58.1281852722168 47.284515380859375
N 49.51250076293945 56.7789421081543 47.33351516723633
C 47.73155212402344 47.817440032958984 50.11236572265625
C 48.00688171386719 48.29900360107422 48.863197326660156
H 48.1202392578125 47.564823150634766 48.06965637207031
C 48.16695022583008 49.68577575683594 48.63523864746094
H 48.3691291809082 50.079856872558594 47.6425666809082
C 47.921958923339844 50.62702178955078 49.69853210449219
C 47.57170867919922 48.69279861450195 51.14372634887695
H 47.37841033935547 48.22563552856445 52.10600280761719
C 47.611717224121094 50.087989807128906 50.91361999511719
H 47.424461364746094 50.77370071411133 51.73599624633789
N 47.55430221557617 46.42360305786133 50.24546432495117
H 46.62698745727539 46.127017974853516 50.51041793823242
C 48.42684555053711 45.40070724487305 50.119747161865234
O 49.59487533569336 45.67151641845703 49.858642578125
C 47.84312057495117 44.00826644897461 50.10111618041992
C 48.590576171875 42.8336067199707 50.16914367675781
H 49.64883804321289 42.86687469482422 50.41520309448242
C 47.9735107421875 41.559486389160156 50.09463882446289
C 46.59500503540039 41.512977600097656 49.97482681274414
H 46.08268356323242 40.56306076049805 49.84538269042969
C 45.79972839355469 42.683624267578125 49.95390319824219
H 44.71541976928711 42.61077117919922 49.93074417114258
C 46.44003677368164 43.90864181518555 50.018470764160156
H 45.78037643432617 44.76944351196289 49.944698333740234
C 48.785701751708984 40.32143783569336 50.192989349365234
H 49.86294937133789 40.456016540527344 50.27873992919922
C 48.35356521606445 39.06094741821289 50.090213775634766
H 47.324951171875 38.77305221557617 49.878108978271484
C 49.14401626586914 37.80500030517578 50.06327819824219
C 50.47425079345703 37.74836730957031 50.63975524902344
H 50.60832595825195 38.62572479248047 51.27593231201172
H 51.23632049560547 37.62464141845703 49.86748123168945
H 50.46867370605469 36.912899017333984 51.3429069519043
C 48.561851501464844 36.65612030029297 49.50325012207031
H 47.53763961791992 36.644569396972656 49.13341522216797
C 49.18675994873047 35.378475189208984 49.2803955078125
H 50.25527572631836 35.31751251220703 49.481590270996094
C 48.53316879272461 34.31565475463867 48.891029357910156
H 47.453094482421875 34.35907745361328 48.758853912353516
C 49.0394172668457 32.99797439575195 48.774009704589844
C 50.242156982421875 32.820255279541016 47.88494110107422
H 49.96181869506836 32.07969284057617 47.13298416137695
H 50.481605529785156 33.74583435058594 47.357276916503906
H 51.173152923583984 32.569671630859375 48.39768981933594
C 48.470706939697266 31.901304244995117 49.27144241333008
H 47.50674819946289 32.08559799194336 49.74340057373047
C 48.914615631103516 30.52707862854004 49.25990295410156
H 49.907386779785156 30.257287979125977 48.902767181396484
C 48.25703048706055 29.571613311767578 49.88896179199219
H 47.336326599121094 29.797800064086914 50.424747467041016
C 48.72499084472656 28.224239349365234 49.90836715698242
H 49.59961700439453 28.040489196777344 49.2861213684082
C 48.55650329589844 27.26987648010254 50.83681106567383
C 47.61876678466797 27.56662368774414 51.96980285644531
H 46.753726959228516 28.2051944732666 51.77903747558594
H 47.24688720703125 26.72117042541504 52.552364349365234
H 48.209407806396484 28.270286560058594 52.56011962890625
C 49.222145080566406 25.959869384765625 50.907779693603516
H 49.09261703491211 25.39792251586914 51.83155822753906
C 49.851863861083984 25.287153244018555 49.9604377746582
H 49.82951354980469 25.685077667236328 48.94698715209961
C 50.584346771240234 24.105188369750977 50.25101852416992
H 50.23656463623047 23.438722610473633 51.03892135620117
C 51.437232971191406 23.535734176635742 49.462547302246094
C 51.76610565185547 24.201013565063477 48.12297058105469
H 52.24858093261719 25.154541015625 48.34761428833008
H 52.40785217285156 23.578371047973633 47.49612045288086
H 50.78994369506836 24.303268432617188 47.64430618286133
C 52.02305603027344 22.224584579467773 49.81098175048828
H 52.26258087158203 21.6632022857666 48.909095764160156
C 52.30576705932617 21.652210235595703 51.01863479614258
H 51.99394607543945 22.237728118896484 51.88226318359375
C 52.903282165527344 20.34410858154297 51.23992156982422
C 52.357765197753906 19.292280197143555 50.64823532104492
C 51.028995513916016 19.265941619873047 49.87425231933594
H 50.4846305847168 18.326637268066406 49.99184799194336
H 50.37969207763672 20.043899536132812 50.28125762939453
H 51.251583099365234 19.515810012817383 48.83478927612305
C 52.876373291015625 17.880197525024414 50.784969329833984
H 52.77351379394531 17.480257034301758 49.77406311035156
H 52.30810546875 17.211013793945312 51.43437576293945
C 54.443782806396484 17.828907012939453 51.20539474487305
H 55.203800201416016 17.950220108032227 50.43071746826172
H 54.58315658569336 16.843666076660156 51.65521240234375
C 54.5820426940918 18.76869010925293 52.34206771850586
H 53.868247985839844 18.335763931274414 53.0460090637207
H 55.5284309387207 18.73908805847168 52.88607406616211
C 54.195682525634766 20.215856552124023 52.00730514526367
C 54.14997863769531 20.95029640197754 53.31300735473633
H 53.32659912109375 20.526599884033203 53.891788482666016
H 55.096397399902344 20.91820526123047 53.856815338134766
H 53.85615158081055 21.989599227905273 53.15182113647461
C 55.3470458984375 20.89276123046875 51.33149337768555
H 55.59471893310547 20.32923126220703 50.42952346801758
H 55.16596984863281 21.940994262695312 51.08474349975586
H 56.25929641723633 20.725175857543945 51.9078369140625
