207
Triad, Carotenoid-Porphyrin-C60
C 49.1078987121582 65.0510482788086 47.33155822753906
C 55.102439880371094 62.95130157470703 47.108665466308594
C 53.33702087402344 62.14958953857422 45.98212432861328
C 51.23691940307617 63.043949127197266 45.33671569824219
C 55.860137939453125 64.84933471679688 48.351226806640625
C 55.54608154296875 63.491554260253906 48.282569885253906
C 55.33485794067383 65.05056762695312 46.050140380859375
C 53.24032211303711 64.14707946777344 44.538543701171875
C 49.97993469238281 66.73102569580078 46.126522064208984
C 55.743019104003906 65.64785766601562 47.20061492919922
C 49.5589599609375 64.5638198852539 46.099510192871094
C 53.73074722290039 66.97801208496094 50.36067581176758
C 55.40744400024414 65.43602752685547 49.54566192626953
C 51.53772735595703 67.76422119140625 49.66233825683594
C 51.487335205078125 68.2637939453125 47.33658218383789
C 50.83677673339844 67.94857788085938 48.48613357543945
C 54.804588317871094 67.50863647460938 48.39537811279297
C 54.63711166381836 65.96317291259766 45.297122955322266
C 53.541831970214844 65.49153137207031 44.59629440307617
C 52.2252197265625 67.46295166015625 45.326316833496094
C 51.61562728881836 61.75475311279297 49.8232421875
C 52.73367691040039 62.49015426635742 50.357582092285156
C 52.08533477783203 61.43547821044922 48.37944030761719
C 53.40802764892578 61.718894958496094 48.2961311340332
C 49.899879455566406 66.22469329833984 49.671199798583984
C 52.66377258300781 63.67048263549805 51.033390045166016
C 50.10466766357422 63.32497787475586 46.10173797607422
C 53.13821029663086 65.92578125 51.06315612792969
C 54.764339447021484 64.39675903320312 50.259456634521484
C 50.98455047607422 66.72581481933594 50.39674377441406
C 51.31089401245117 61.70577621459961 47.228614807128906
C 53.54264450073242 68.1802978515625 48.478248596191406
C 52.82426452636719 68.37275695800781 47.25668716430664
C 52.35580825805664 66.23684692382812 44.590267181396484
C 54.52677536010742 67.18143463134766 46.026153564453125
C 50.21803283691406 62.538944244384766 49.932064056396484
C 50.34061813354492 63.94830322265625 50.43301010131836
C 49.644859313964844 62.967185974121094 48.53155517578125
C 49.619808197021484 64.86888122558594 49.68609619140625
C 51.07588195800781 67.6318588256836 46.118003845214844
C 53.791282653808594 62.287086486816406 49.48994064331055
C 50.178287506103516 62.55242919921875 47.345977783203125
C 49.18690872192383 64.30615234375 48.54330825805664
C 51.95970153808594 62.06222915649414 46.03138732910156
C 49.74574661254883 66.99972534179688 48.53135299682617
C 51.451045989990234 64.43189239501953 51.109928131103516
C 53.70979309082031 64.6435775756836 51.068519592285156
C 54.066017150878906 61.98090744018555 47.1187858581543
C 54.83620834350586 63.22454071044922 49.506080627441406
C 53.33269119262695 67.87995910644531 46.03498077392578
C 51.758995056152344 65.80010986328125 51.07462692260742
C 49.30855178833008 66.39701843261719 47.33997344970703
C 55.11193084716797 63.67720413208008 45.960208892822266
C 53.98146057128906 63.22404479980469 45.26007843017578
C 51.84667205810547 64.07022094726562 44.50917053222656
C 50.127952575683594 65.58423614501953 45.34918975830078
C 54.87750244140625 66.7630844116211 49.555870056152344
C 52.93036651611328 67.82156372070312 49.63737487792969
C 51.31112289428711 65.35653686523438 44.609214782714844
C 55.28899002075195 66.94585418701172 47.17018127441406
C 51.32774353027344 60.488895416259766 50.551002502441406
N 50.12562561035156 60.43122863769531 51.02572250366211
C 49.34255599975586 61.600311279296875 50.765995025634766
H 49.072330474853516 62.101165771484375 51.69914627075195
H 48.374244689941406 61.40580368041992 50.29782485961914
C 54.30265808105469 57.60701370239258 52.096290588378906
C 53.19772720336914 57.99129867553711 52.89243698120117
H 53.205772399902344 57.78604507446289 53.9598503112793
C 52.22552490234375 58.903404235839844 52.41930389404297
H 51.413333892822266 59.232723236083984 53.06231689453125
C 52.301143646240234 59.427024841308594 51.11051559448242
C 54.31303405761719 58.00713348388672 50.789241790771484
H 55.04951477050781 57.575164794921875 50.116512298583984
C 53.390159606933594 58.97039031982422 50.30277633666992
H 53.367156982421875 59.377315521240234 49.295074462890625
C 55.35774612426758 56.74528121948242 52.74632263183594
C 55.31831359863281 56.38118362426758 54.20650863647461
C 55.477176666259766 57.13198471069336 55.3975830078125
H 55.65901565551758 58.1994514465332 55.32923126220703
C 55.15348815917969 56.25598907470703 56.5507926940918
H 55.093074798583984 56.55045700073242 57.59332275390625
C 54.86332321166992 55.05978775024414 56.014259338378906
N 54.944454193115234 55.14390563964844 54.65538024902344
H 54.740814208984375 54.3613395690918 54.048553466796875
C 54.61921310424805 53.75877380371094 56.623634338378906
H 54.322635650634766 53.90553283691406 57.6611442565918
C 54.92839431762695 52.479949951171875 56.21913146972656
C 55.322547912597656 51.526729583740234 57.196781158447266
H 55.40812683105469 51.69721603393555 58.2648811340332
C 55.777889251708984 50.428672790527344 56.440650939941406
H 56.312679290771484 49.536537170410156 56.74938201904297
C 55.65043640136719 50.83027267456055 55.01381301879883
N 55.22917175292969 52.08715057373047 54.9439697265625
C 56.00598907470703 50.149803161621094 53.75825119018555
C 56.844276428222656 50.685585021972656 52.83024597167969
C 57.89308166503906 50.05753707885742 52.13203048706055
H 58.10793685913086 49.012481689453125 52.329322814941406
C 58.52568054199219 50.93505859375 51.326900482177734
H 59.442108154296875 50.80970001220703 50.75973892211914
C 57.892982482910156 52.23275375366211 51.481510162353516
N 56.875850677490234 51.96210861206055 52.339073181152344
H 56.26470184326172 52.725345611572266 52.59615707397461
C 58.2974967956543 53.39338684082031 50.92840576171875
H 59.20917892456055 53.34791946411133 50.33452224731445
C 57.59499740600586 54.661354064941406 51.04691696166992
C 57.95793533325195 55.92555618286133 50.49971008300781
H 58.82793045043945 55.96950149536133 49.85287094116211
C 57.17048645019531 56.8919563293457 51.09779739379883
H 57.149654388427734 57.958518981933594 50.899715423583984
C 56.32722091674805 56.20369338989258 51.92047882080078
N 56.52964401245117 54.90747833251953 51.84927749633789
C 53.97040557861328 46.35801696777344 52.89656066894531
C 54.850093841552734 46.92209243774414 51.99228286743164
H 55.194515228271484 46.36372375488281 51.12558364868164
C 55.4495849609375 48.19172668457031 52.24895095825195
H 56.068599700927734 48.62449645996094 51.46721267700195
C 55.27288818359375 48.8339958190918 53.47414779663086
C 53.72762680053711 47.027042388916016 54.0673942565918
H 52.96011734008789 46.59865951538086 54.70691680908203
C 54.2793083190918 48.29472351074219 54.291175842285156
H 53.876373291015625 48.844505310058594 55.13790512084961
N 53.459659576416016 44.98537063598633 52.71663284301758
H 53.643131256103516 44.37678527832031 53.500240325927734
C 52.88688659667969 44.39479064941406 51.633079528808594
O 52.716522216796875 45.02302551269531 50.616302490234375
C 52.533119201660156 42.91494369506836 51.63291931152344
C 51.74679946899414 42.47689437866211 50.57846450805664
H 51.248069763183594 43.16325378417969 49.8989372253418
C 51.368438720703125 41.127647399902344 50.55643844604492
C 51.91868209838867 40.24823760986328 51.559871673583984
H 51.688140869140625 39.18601608276367 51.57038497924805
C 52.706661224365234 40.72383117675781 52.57926940917969
H 53.008724212646484 39.95866775512695 53.28980255126953
C 53.02738571166992 42.05752182006836 52.61231994628906
H 53.70966339111328 42.43465805053711 53.369834899902344
C 50.40236282348633 40.68415451049805 49.52479934692383
H 49.980140686035156 41.48735809326172 48.922706604003906
C 49.931331634521484 39.5013427734375 49.229713439941406
H 50.21012496948242 38.668121337890625 49.87309646606445
C 48.98335266113281 39.06601333618164 48.23543167114258
C 48.85031509399414 39.91469192504883 46.97666931152344
H 49.646827697753906 40.660640716552734 47.01646423339844
H 47.8912239074707 40.42927932739258 47.06501770019531
H 48.87431335449219 39.339229583740234 46.048912048339844
C 48.31191635131836 37.912322998046875 48.25326156616211
H 48.452789306640625 37.22943115234375 49.08976364135742
C 47.187381744384766 37.45189666748047 47.3603515625
H 46.96467208862305 38.12645721435547 46.534950256347656
C 46.39162826538086 36.35972213745117 47.44435501098633
H 46.60132598876953 35.66249465942383 48.25418472290039
C 45.27534484863281 36.01050567626953 46.57822799682617
C 44.94291305541992 36.96500778198242 45.472145080566406
H 44.332279205322266 36.53267288208008 44.67673873901367
H 44.30702590942383 37.792049407958984 45.7948112487793
H 45.8443717956543 37.28683090209961 44.946533203125
C 44.621952056884766 34.83121109008789 46.77158737182617
H 44.908607482910156 34.23430252075195 47.636138916015625
C 43.4899787902832 34.329063415527344 46.013797760009766
H 43.092628479003906 35.00209426879883 45.255462646484375
C 42.94981384277344 33.12340545654297 46.24470138549805
H 43.32120895385742 32.51166915893555 47.06553649902344
C 41.78414535522461 32.585479736328125 45.56049728393555
H 41.4697265625 33.22235107421875 44.734989166259766
C 41.06669998168945 31.4285831451416 45.761531829833984
C 41.45573425292969 30.492311477661133 46.86902618408203
H 41.835758209228516 31.110004425048828 47.68541717529297
H 40.70600128173828 29.757492065429688 47.169700622558594
H 42.40776824951172 30.13614845275879 46.469970703125
C 39.801490783691406 31.022199630737305 45.111358642578125
H 39.271697998046875 31.844141006469727 44.63213348388672
C 39.10476303100586 29.850337982177734 45.16159439086914
H 39.55466842651367 28.976919174194336 45.63133239746094
C 37.70772933959961 29.61067771911621 44.74546813964844
H 37.23173522949219 30.584861755371094 44.64389419555664
C 36.985801696777344 28.508197784423828 44.47964096069336
C 37.41145324707031 27.034467697143555 44.73448944091797
H 36.694602966308594 26.531705856323242 45.38704299926758
H 37.463417053222656 26.48299217224121 43.79340744018555
H 38.39183044433594 26.991878509521484 45.213558197021484
C 35.61821365356445 28.66157341003418 44.03729248046875
H 35.38576126098633 29.719545364379883 43.92509078979492
C 34.66096115112305 27.782947540283203 43.71382522583008
H 34.7718505859375 26.734472274780273 43.986446380615234
C 33.34444808959961 28.111783981323242 43.16881561279297
C 33.069828033447266 28.981000900268555 42.18665313720703
C 34.04118728637695 29.87961769104004 41.47622299194336
H 33.59284973144531 30.182706832885742 40.52775192260742
H 34.25951385498047 30.789596557617188 42.03901672363281
H 35.01336669921875 29.394529342651367 41.36662673950195
C 31.66751480102539 29.418649673461914 41.87013626098633
H 31.76534652709961 29.797929763793945 40.85080337524414
H 31.457117080688477 30.366228103637695 42.37042999267578
C 30.696170806884766 28.282888412475586 41.816436767578125
H 30.80791473388672 27.665857315063477 40.922428131103516
H 29.683334350585938 28.65538787841797 41.64948272705078
C 30.793569564819336 27.727031707763672 43.298892974853516
H 30.585115432739258 28.572891235351562 43.95732498168945
H 29.981903076171875 27.027645111083984 43.509891510009766
C 32.243385314941406 27.15961265563965 43.59912872314453
C 32.32564926147461 26.918489456176758 45.132755279541016
H 32.46239471435547 27.72466278076172 45.856529235839844
H 31.43840217590332 26.353410720825195 45.425907135009766
H 33.16144943237305 26.300228118896484 45.46690368652344
C 32.24676513671875 25.8129940032959 42.955413818359375
H 33.10340118408203 25.15787696838379 43.12704086303711
H 31.448102951049805 25.132740020751953 43.25849533081055
H 32.24192428588867 25.966251373291016 41.87423324584961
