207
Triad, Carotenoid-Porphyrin-C60
C 57.05776596069336 33.38251876831055 46.61465835571289
C 52.2030143737793 37.510868072509766 47.25011444091797
C 54.01144790649414 37.82767868041992 45.952999114990234
C 55.7249870300293 36.41351318359375 45.08687973022461
C 50.7791862487793 35.82986831665039 48.348052978515625
C 51.624813079833984 36.918540954589844 48.38844680786133
C 51.0844841003418 35.901615142822266 45.90961837768555
C 53.403743743896484 36.136878967285156 44.389488220214844
C 55.49186325073242 32.38089370727539 45.3575439453125
C 50.51237106323242 35.26341247558594 47.078514099121094
C 56.75132369995117 34.23870849609375 45.53549575805664
C 52.115116119384766 32.855777740478516 49.813232421875
C 51.101619720458984 34.97659683227539 49.43730545043945
C 53.799747467041016 31.44095230102539 48.85142135620117
C 53.64365768432617 31.296619415283203 46.49937057495117
C 54.38022232055664 31.187267303466797 47.63400650024414
C 50.820735931396484 33.0229377746582 47.962886810302734
C 51.45046615600586 34.909236907958984 45.0193977355957
C 52.637630462646484 34.95653533935547 44.31660461425781
C 53.18917465209961 32.668338775634766 44.797096252441406
C 56.10994338989258 36.940338134765625 49.57947540283203
C 54.7689094543457 36.64025115966797 50.196372985839844
C 55.64981460571289 37.6199836730957 48.276912689208984
C 54.2959098815918 37.911949157714844 48.343536376953125
C 55.90751266479492 32.213321685791016 48.870849609375
C 54.430606842041016 35.39963912963867 50.712711334228516
C 56.66720962524414 35.60725402832031 45.70329284667969
C 53.148624420166016 33.503456115722656 50.54600143432617
C 52.1135139465332 35.650672912597656 50.16094207763672
C 54.78518295288086 32.057945251464844 49.62178039550781
C 56.10044479370117 37.245521545410156 47.06112289428711
C 51.71908950805664 31.930782318115234 47.79670333862305
C 52.26656723022461 31.631248474121094 46.548824310302734
C 53.467891693115234 33.88444900512695 44.16128921508789
C 51.18169021606445 33.64733123779297 45.61025619506836
C 57.0913200378418 35.74763107299805 49.405818939208984
C 56.493106842041016 34.385589599609375 49.931854248046875
C 57.3914909362793 35.3406867980957 48.00123596191406
C 56.73477554321289 33.385372161865234 48.998905181884766
C 54.15214920043945 31.899036407470703 45.347068786621094
C 53.75876998901367 37.31254959106445 49.47871017456055
C 56.97055435180664 36.141544342041016 46.926082611083984
C 57.286624908447266 33.97254180908203 47.84716033935547
C 55.387264251708984 37.41773986816406 45.9146728515625
C 55.67009353637695 31.675731658935547 47.62983322143555
C 55.27589797973633 34.269100189208984 50.61439514160156
C 53.10757064819336 34.86127853393555 50.696353912353516
C 53.502132415771484 38.068634033203125 47.22886657714844
C 52.40488815307617 36.81632995605469 49.53994369506836
C 52.01816177368164 32.50605392456055 45.4705696105957
C 54.47291946411133 33.12700271606445 50.48530197143555
C 56.24678421020508 32.29201889038086 46.47891616821289
C 51.90219497680664 36.975467681884766 45.986976623535156
C 53.004207611083984 37.11397171020508 45.22568893432617
C 54.69560623168945 35.73676681518555 44.38679122924805
C 55.75547409057617 33.649757385253906 44.775028228759766
C 51.15957260131836 33.6055793762207 49.195430755615234
C 52.42824172973633 31.784893035888672 48.97646713256836
C 54.77969741821289 34.40208053588867 44.1627311706543
C 50.618831634521484 33.90835189819336 46.91643524169922
C 56.8754997253418 37.882850646972656 50.437705993652344
N 58.01833724975586 37.41892623901367 50.7852783203125
C 58.344974517822266 36.05685806274414 50.25824737548828
H 58.46073532104492 35.37586975097656 51.10530471801758
H 59.299800872802734 35.96678924560547 49.733985900878906
C 55.59074020385742 42.07147216796875 50.542606353759766
C 56.76839065551758 41.602691650390625 49.816139221191406
H 57.40614700317383 42.31874084472656 49.30417251586914
C 57.19108200073242 40.28449249267578 49.89996337890625
H 58.1372184753418 40.136192321777344 49.38575744628906
C 56.50815963745117 39.33092498779297 50.56959915161133
C 54.9193000793457 41.059486389160156 51.3044548034668
H 53.939022064208984 41.239784240722656 51.738189697265625
C 55.36814498901367 39.74134826660156 51.29448699951172
H 54.9135856628418 38.9329719543457 51.861480712890625
C 55.05064010620117 43.45563507080078 50.327003479003906
C 55.66521072387695 44.374664306640625 49.34634780883789
C 56.96860885620117 44.825286865234375 49.2672119140625
H 57.795597076416016 44.53837585449219 49.90829849243164
C 57.1043586730957 45.697425842285156 48.14495086669922
H 58.02434158325195 46.18927764892578 47.846717834472656
C 55.83261489868164 45.852195739746094 47.61977005004883
N 54.97182846069336 44.97955322265625 48.27036666870117
H 54.030765533447266 44.73595428466797 47.99254608154297
C 55.28923416137695 46.617523193359375 46.5136833190918
H 55.9929313659668 47.00987243652344 45.78102493286133
C 54.002323150634766 46.99818420410156 46.16704559326172
C 53.64632034301758 47.1248779296875 44.78841018676758
H 54.409969329833984 47.2022705078125 44.02155303955078
C 52.30283737182617 47.24151611328125 44.82807540893555
H 51.69369125366211 47.35011291503906 43.93680191040039
C 51.87543869018555 47.18328857421875 46.18483352661133
N 52.91359329223633 47.074737548828125 47.01531982421875
C 50.47675704956055 47.25459289550781 46.64026641845703
C 50.06942367553711 46.99756622314453 47.87651824951172
C 49.31377029418945 47.78987121582031 48.74889373779297
H 48.77382278442383 48.6470947265625 48.360496520996094
C 49.42617416381836 47.34797668457031 50.06548309326172
H 49.15281295776367 47.871116638183594 50.975887298583984
C 50.30476760864258 46.21723937988281 50.05696105957031
N 50.521549224853516 46.04261779785156 48.76964569091797
H 51.15324020385742 45.313209533691406 48.46788024902344
C 50.860660552978516 45.62274169921875 51.1051025390625
H 50.39951705932617 45.8916015625 52.05430603027344
C 51.90854263305664 44.69646453857422 51.227474212646484
C 52.43088150024414 44.178993225097656 52.51124572753906
H 51.99703598022461 44.356407165527344 53.489776611328125
C 53.5761604309082 43.62511444091797 52.17692565917969
H 54.287357330322266 43.35853576660156 52.951751708984375
C 53.83186721801758 43.78080749511719 50.85923767089844
N 52.75912857055664 44.32555389404297 50.24983215332031
C 47.41179275512695 48.98284149169922 44.057926177978516
C 47.03181838989258 48.18132019042969 45.11233901977539
H 45.96811294555664 47.97471618652344 45.19845962524414
C 48.02810287475586 47.70429992675781 45.988529205322266
H 47.73137283325195 46.993995666503906 46.75598907470703
C 49.40748977661133 47.93274688720703 45.81515121459961
C 48.754215240478516 49.330291748046875 43.90016555786133
H 48.97809982299805 50.07952880859375 43.14512252807617
C 49.74252700805664 48.810401916503906 44.77058029174805
H 50.75363540649414 49.20587158203125 44.71724319458008
N 46.459224700927734 49.683570861816406 43.2652473449707
H 46.67843246459961 50.66847229003906 43.263671875
C 45.37361526489258 49.2728271484375 42.523780822753906
O 45.20405960083008 48.08427429199219 42.39131164550781
C 44.53402328491211 50.308570861816406 41.81357955932617
C 44.28041458129883 51.513206481933594 42.42833709716797
H 44.71986770629883 51.65106964111328 43.412940979003906
C 43.527706146240234 52.461280822753906 41.811302185058594
C 42.936946868896484 52.10851287841797 40.60295867919922
H 42.3072624206543 52.850608825683594 40.11885070800781
C 43.07283401489258 50.869361877441406 40.029052734375
H 42.455692291259766 50.6246337890625 39.16835021972656
C 44.002323150634766 50.064552307128906 40.5976676940918
H 44.115604400634766 49.055458068847656 40.20976257324219
C 43.3329963684082 53.78553771972656 42.46272659301758
H 43.9068489074707 53.80250549316406 43.38810729980469
C 42.528934478759766 54.8353271484375 42.226322174072266
H 41.83018112182617 54.71082305908203 41.400390625
C 42.406429290771484 56.080413818359375 42.97676467895508
C 41.2404670715332 57.03131103515625 42.79627990722656
H 41.62247085571289 57.98143768310547 42.417057037353516
H 40.77863693237305 57.170379638671875 43.7759895324707
H 40.48887252807617 56.487335205078125 42.22038269042969
C 43.3951301574707 56.501800537109375 43.78962326049805
H 44.32978439331055 55.94447326660156 43.83140182495117
C 43.382442474365234 57.74076843261719 44.521156311035156
H 42.60100173950195 58.47661590576172 44.337276458740234
C 44.29133987426758 58.013671875 45.47515869140625
H 45.09101486206055 57.297027587890625 45.656436920166016
C 44.404972076416016 59.086814880371094 46.44890594482422
C 45.77167892456055 59.487213134765625 46.9843635559082
H 45.7855339050293 60.57157897949219 47.112491607666016
H 46.03828811645508 59.05265808105469 47.950050354003906
H 46.556697845458984 59.316810607910156 46.24464797973633
C 43.3311653137207 59.682777404785156 47.012508392333984
H 42.359493255615234 59.46100616455078 46.57365036010742
C 43.118953704833984 60.644744873046875 48.10851287841797
H 43.9590950012207 60.643768310546875 48.8014030456543
C 41.98179244995117 61.303131103515625 48.27444839477539
H 41.18381881713867 61.10267639160156 47.5610237121582
C 41.6972541809082 62.24560546875 49.32512664794922
H 42.438472747802734 62.356300354003906 50.115234375
C 40.61808395385742 63.03334045410156 49.33258056640625
C 39.51182174682617 63.10166931152344 48.32630920410156
H 39.10282516479492 62.12109375 48.074012756347656
H 38.62600326538086 63.627960205078125 48.687992095947266
H 39.89948654174805 63.58161926269531 47.425296783447266
C 40.42820358276367 63.94886016845703 50.447021484375
H 40.1341438293457 64.93079376220703 50.07925033569336
C 40.663700103759766 63.753326416015625 51.76538848876953
H 41.00590133666992 62.764556884765625 52.06731033325195
C 40.585689544677734 64.88763427734375 52.649166107177734
H 40.4898567199707 65.8503646850586 52.1492805480957
C 40.583431243896484 64.95218658447266 54.00135040283203
C 40.808650970458984 63.72277069091797 54.79845428466797
H 40.24307632446289 63.68144226074219 55.73166275024414
H 40.5067253112793 62.796226501464844 54.30569839477539
H 41.876895904541016 63.76756286621094 55.020511627197266
C 40.229915618896484 66.11734008789062 54.734466552734375
H 39.7545051574707 66.8436279296875 54.07688903808594
C 40.511295318603516 66.37030792236328 55.98158264160156
H 40.989620208740234 65.68384552001953 56.678646087646484
C 40.076297760009766 67.64611053466797 56.57783508300781
C 38.8448371887207 68.30479431152344 56.311439514160156
C 37.71428298950195 67.79225158691406 55.409305572509766
H 37.743526458740234 66.7046127319336 55.316200256347656
H 36.71525192260742 68.02369689941406 55.78457260131836
H 37.807621002197266 68.34151458740234 54.470123291015625
C 38.464176177978516 69.68277740478516 56.76761245727539
H 37.83309555053711 69.40037536621094 57.61287307739258
H 37.91609573364258 70.30675506591797 56.0585823059082
C 39.80869674682617 70.47248077392578 57.088035583496094
H 39.524417877197266 71.46351623535156 57.44789123535156
H 40.44193649291992 70.70053100585938 56.228118896484375
C 40.548274993896484 69.5845718383789 58.14547348022461
H 41.411067962646484 70.09014892578125 58.58415222167969
H 39.8633918762207 69.34367370605469 58.961181640625
C 41.120182037353516 68.30722045898438 57.51506423950195
C 42.43193435668945 68.59615325927734 56.72300338745117
H 42.85709762573242 67.66095733642578 56.352725982666016
H 42.231082916259766 69.31678771972656 55.927513122558594
H 43.23414993286133 69.01490783691406 57.33419418334961
C 41.41294479370117 67.50354766845703 58.715606689453125
H 41.705814361572266 66.47813415527344 58.480594635009766
H 41.99226760864258 68.00919342041016 59.4909553527832
H 40.45283126831055 67.214599609375 59.14822006225586
