207
Triad, Carotenoid-Porphyrin-C60
C 45.13338088989258 63.82453918457031 60.79478073120117
C 45.84471893310547 60.73408508300781 55.339691162109375
C 43.880863189697266 61.473541259765625 56.15472412109375
C 43.26896667480469 63.01317596435547 57.845497131347656
C 48.249359130859375 61.099037170410156 55.439979553222656
C 47.137351989746094 60.23955535888672 55.5749626159668
C 46.75721740722656 62.850059509277344 54.715267181396484
C 44.3934440612793 63.79894256591797 55.84170913696289
C 45.87421798706055 65.54580688476562 59.56193923950195
C 48.05044937133789 62.37518310546875 54.937721252441406
C 44.20170974731445 64.10334777832031 59.81343460083008
C 50.014678955078125 61.905555725097656 58.40632247924805
C 49.13850021362305 60.765296936035156 56.3978385925293
C 49.36735153198242 63.535728454589844 60.049896240234375
C 48.199127197265625 65.39583587646484 58.98417282104492
C 48.477962493896484 64.6507568359375 60.105224609375
C 49.594337463378906 63.15675354003906 56.629459381103516
C 46.606876373291016 64.17366790771484 55.173240661621094
C 45.42955780029297 64.6430892944336 55.721187591552734
C 46.75624084472656 65.8272476196289 57.34379959106445
C 45.19977951049805 59.2327880859375 59.64925765991211
C 46.52047348022461 59.07781982421875 58.905269622802734
C 44.38349914550781 59.744476318359375 58.467559814453125
C 45.0457763671875 59.56831359863281 57.24580764770508
C 47.72401809692383 62.962181091308594 61.4909782409668
C 47.72971725463867 59.553077697753906 59.37760925292969
C 43.491024017333984 63.00927734375 59.18443298339844
C 49.563499450683594 60.892906188964844 59.21347427368164
C 48.62172317504883 59.71015930175781 57.223289489746094
C 48.87331771850586 62.522247314453125 60.8928108215332
C 43.5651741027832 60.87591552734375 58.52949905395508
C 49.67281723022461 64.03043365478516 57.675537109375
C 48.785194396972656 65.10600280761719 57.728057861328125
C 45.479331970214844 65.47490692138672 56.806758880615234
C 47.85658264160156 64.51443481445312 55.63871765136719
C 45.24662399291992 60.197174072265625 60.91303634643555
C 46.62554931640625 60.80512237548828 61.16630554199219
C 44.51005935668945 61.4979248046875 60.75510787963867
C 46.607540130615234 62.11577606201172 61.57524108886719
C 46.94010543823242 65.88191986083984 58.70015335083008
C 46.31637191772461 59.15565490722656 57.513771057128906
C 43.69544982910156 61.737457275390625 59.626487731933594
C 45.29267501831055 62.53545379638672 61.31983947753906
C 43.33168411254883 61.705780029296875 57.41594696044922
C 47.47145462036133 64.27899169921875 60.95684814453125
C 47.727108001708984 60.466941833496094 60.45374298095703
C 48.848243713378906 59.8211669921875 58.607505798339844
C 44.72603988647461 60.347816467285156 56.09648132324219
C 47.35630798339844 59.45124816894531 56.67581558227539
C 47.908145904541016 65.41719055175781 56.67584228515625
C 48.909358978271484 61.18982696533203 60.39755630493164
C 46.16566467285156 64.7284927368164 60.673851013183594
C 45.67392349243164 62.049720764160156 54.93146896362305
C 44.44401550292969 62.48991394042969 55.36747741699219
C 43.729026794433594 64.05502319335938 57.05278778076172
C 44.63997268676758 65.17218780517578 59.037986755371094
C 49.840423583984375 61.837127685546875 57.01565933227539
C 49.974735260009766 63.2813720703125 58.81901550292969
C 44.399658203125 65.099365234375 57.634334564208984
C 48.749107360839844 63.41889953613281 55.548213958740234
C 44.811378479003906 57.90704345703125 60.28499984741211
N 44.713802337646484 57.92438507080078 61.57020568847656
C 44.74446105957031 59.296348571777344 62.119964599609375
H 45.29255676269531 59.30146026611328 63.06559371948242
H 43.727210998535156 59.475860595703125 62.477210998535156
C 44.141109466552734 54.153968811035156 58.164459228515625
C 43.30942153930664 55.26121520996094 57.89787292480469
H 42.41987228393555 55.213233947753906 57.27499771118164
C 43.59822082519531 56.50804901123047 58.55750274658203
H 42.96742630004883 57.37561798095703 58.3814697265625
C 44.649322509765625 56.67095184326172 59.45153045654297
C 45.29898452758789 54.306907653808594 58.96031951904297
H 45.896663665771484 53.4219970703125 59.163482666015625
C 45.45297622680664 55.54167175292969 59.68132019042969
H 46.21178436279297 55.629295349121094 60.45469284057617
C 43.796199798583984 52.74817657470703 57.578773498535156
C 42.559627532958984 52.547576904296875 56.767364501953125
C 41.25572204589844 53.013519287109375 56.94340515136719
H 40.864280700683594 53.72087097167969 57.667049407958984
C 40.50149154663086 52.51142120361328 55.83917236328125
H 39.44472885131836 52.7255859375 55.71826934814453
C 41.28005599975586 51.648887634277344 55.09796142578125
N 42.52825164794922 51.79248046875 55.67695617675781
H 43.33979797363281 51.26606750488281 55.382999420166016
C 40.98625946044922 50.83369445800781 53.91921615600586
H 39.988094329833984 51.08497619628906 53.563621520996094
C 41.80537033081055 50.1763916015625 53.03904724121094
C 41.422672271728516 49.59278869628906 51.83676528930664
H 40.43622970581055 49.45403289794922 51.40675735473633
C 42.60561752319336 49.13423156738281 51.25975036621094
H 42.791168212890625 48.544471740722656 50.36813735961914
C 43.63015365600586 49.41559600830078 52.20051956176758
N 43.160865783691406 50.090187072753906 53.30986404418945
C 45.06692123413086 49.141357421875 52.175865173339844
C 45.722412109375 48.626983642578125 53.245933532714844
C 46.38829803466797 47.326072692871094 53.48374938964844
H 46.401790618896484 46.476348876953125 52.809200286865234
C 46.826602935791016 47.32701110839844 54.75994110107422
H 47.26464080810547 46.48625183105469 55.28765106201172
C 46.28590774536133 48.39674377441406 55.49699783325195
N 45.85783767700195 49.18486022949219 54.46997833251953
H 45.40995407104492 50.07435607910156 54.64408874511719
C 46.238197326660156 48.640419006347656 56.80883026123047
H 46.63615036010742 47.834503173828125 57.4236946105957
C 45.678401947021484 49.82878875732422 57.51239013671875
C 45.59043884277344 50.04888916015625 58.923954010009766
H 45.91832733154297 49.355186462402344 59.691097259521484
C 44.79243850708008 51.12632751464844 59.07405090332031
H 44.39310073852539 51.526588439941406 60.00008773803711
C 44.6015510559082 51.69383239746094 57.859004974365234
N 45.115394592285156 50.90193176269531 56.93120574951172
C 47.21236801147461 49.24256134033203 48.47727584838867
C 47.76634979248047 48.67662048339844 49.58115005493164
H 48.75043869018555 48.221275329589844 49.504974365234375
C 47.13980484008789 48.80487823486328 50.81818389892578
H 47.68880081176758 48.40349578857422 51.66615676879883
C 45.80652618408203 49.249061584472656 50.929893493652344
C 45.926109313964844 49.681602478027344 48.54551696777344
H 45.46156692504883 49.929107666015625 47.59445571899414
C 45.23472213745117 49.81513977050781 49.77798843383789
H 44.19550323486328 50.133140563964844 49.75637435913086
N 47.9844970703125 49.03845977783203 47.278507232666016
H 48.239105224609375 49.87816619873047 46.78036880493164
C 48.085716247558594 47.879539489746094 46.50395965576172
O 47.68191146850586 46.806968688964844 46.925628662109375
C 48.71857833862305 48.050575256347656 45.19019317626953
C 49.08958435058594 46.890724182128906 44.45180130004883
H 48.97156524658203 45.898292541503906 44.879249572753906
C 49.83061981201172 47.005035400390625 43.29765701293945
C 49.9015998840332 48.28948974609375 42.75025177001953
H 50.407470703125 48.40248107910156 41.7947998046875
C 49.53765106201172 49.472801208496094 43.350242614746094
H 49.66800308227539 50.41432189941406 42.8228759765625
C 48.89382553100586 49.29113006591797 44.576683044433594
H 48.65847396850586 50.19132995605469 45.1386604309082
C 50.266029357910156 45.84758758544922 42.54817199707031
H 50.11791229248047 44.88909912109375 43.043434143066406
C 50.830806732177734 45.72758483886719 41.30767059326172
H 50.868927001953125 46.64564514160156 40.723175048828125
C 51.322174072265625 44.463645935058594 40.69796371459961
C 52.536102294921875 44.61341094970703 39.78199005126953
H 53.32001495361328 43.8751220703125 39.96329879760742
H 53.0210075378418 45.582679748535156 39.915611267089844
H 52.301063537597656 44.62237548828125 38.71562194824219
C 50.88746643066406 43.24896240234375 41.04337692260742
H 50.12274932861328 43.134193420410156 41.81016540527344
C 51.27799987792969 41.94810485839844 40.44872283935547
H 51.8775749206543 42.007652282714844 39.54159164428711
C 50.929264068603516 40.77690887451172 40.974609375
H 50.33072280883789 40.87217712402344 41.879371643066406
C 51.1938591003418 39.46333312988281 40.419734954833984
C 50.364845275878906 38.396297454833984 41.043399810791016
H 50.277896881103516 37.518211364746094 40.40007019042969
H 50.856143951416016 38.059326171875 41.95857620239258
H 49.40962219238281 38.80411911010742 41.38056945800781
C 52.07171630859375 39.185943603515625 39.526031494140625
H 52.56942367553711 40.0467529296875 39.08193588256836
C 52.47020721435547 37.88304901123047 38.974483489990234
H 52.26906204223633 36.95048904418945 39.49965286254883
C 53.07536315917969 37.861915588378906 37.76319885253906
H 53.247676849365234 38.82209014892578 37.279144287109375
C 53.3126220703125 36.613426208496094 37.006595611572266
H 52.81635284423828 35.783599853515625 37.50762939453125
C 54.018943786621094 36.49271011352539 35.843040466308594
C 54.592342376708984 37.697669982910156 35.1987419128418
H 54.58900451660156 37.61859130859375 34.10961151123047
H 53.9979248046875 38.59583282470703 35.37882614135742
H 55.652488708496094 37.876434326171875 35.390037536621094
C 54.35873031616211 35.243255615234375 35.19398880004883
H 54.960872650146484 35.42669677734375 34.30533981323242
C 54.0193977355957 33.93497848510742 35.5360107421875
H 53.44771957397461 33.79742431640625 36.4526252746582
C 54.487327575683594 32.8148078918457 34.82431411743164
H 55.184425354003906 33.014198303222656 34.01177215576172
C 54.168766021728516 31.520973205566406 34.979129791259766
C 53.302249908447266 31.162120819091797 36.16141891479492
H 53.19063186645508 30.078643798828125 36.23934555053711
H 53.868995666503906 31.484760284423828 37.037296295166016
H 52.36874771118164 31.725475311279297 36.10075759887695
C 54.63153076171875 30.436664581298828 34.135276794433594
H 54.27396774291992 29.445648193359375 34.4108772277832
C 55.38726043701172 30.420570373535156 33.02373123168945
H 55.542274475097656 31.385894775390625 32.54409408569336
C 55.81155776977539 29.289600372314453 32.197357177734375
C 55.02354049682617 28.1943359375 31.974510192871094
C 53.59805679321289 28.00372314453125 32.50608825683594
H 53.67329788208008 27.693714141845703 33.55045700073242
H 53.00583267211914 28.921016693115234 32.523555755615234
H 53.00623321533203 27.249786376953125 31.98284149169922
C 55.48514175415039 27.003643035888672 31.119401931762695
H 55.05015182495117 27.06224822998047 30.119497299194336
H 55.0662727355957 26.116138458251953 31.598310470581055
C 57.02722930908203 26.874252319335938 30.97406005859375
H 57.24501037597656 26.131404876708984 30.203855514526367
H 57.53727722167969 26.581497192382812 31.8941707611084
C 57.550331115722656 28.34064483642578 30.594270706176758
H 58.6160888671875 28.378677368164062 30.3593807220459
H 57.001121520996094 28.797813415527344 29.76854133605957
C 57.28537368774414 29.384490966796875 31.661466598510742
C 58.336463928222656 29.320850372314453 32.68651580810547
H 59.35374450683594 29.567119598388672 32.375152587890625
H 58.140628814697266 30.06737518310547 33.45905303955078
H 58.40162658691406 28.35715103149414 33.19593048095703
C 57.523197174072266 30.747657775878906 31.036121368408203
H 58.50547790527344 30.70196533203125 30.561254501342773
H 56.80565643310547 31.04043960571289 30.26678466796875
H 57.583221435546875 31.591510772705078 31.726606369018555
