207
Triad, Carotenoid-Porphyrin-C60
C 65.51000213623047 53.16928482055664 56.45150375366211
C 62.69595718383789 48.93723678588867 52.52622604370117
C 63.620487213134766 50.92734146118164 51.958797454833984
C 65.17096710205078 52.45402145385742 52.92963409423828
C 62.69765853881836 47.186893463134766 54.18878936767578
C 62.04056167602539 48.18809127807617 53.51387405395508
C 64.72611236572266 47.72218704223633 53.00565719604492
C 65.88887023925781 50.23064041137695 52.317012786865234
C 67.13005065917969 51.62712478637695 56.310916900634766
C 64.06198120117188 46.9890251159668 53.96961212158203
C 65.93264770507812 53.097415924072266 55.1215934753418
C 63.052433013916016 47.9812126159668 57.667903900146484
C 62.262874603271484 47.2490119934082 55.53654861450195
C 64.65186309814453 49.56059646606445 58.68088150024414
C 66.73657989501953 49.52138137817383 57.428855895996094
C 65.89671325683594 50.18788528442383 58.301387786865234
C 64.47264862060547 46.92509078979492 56.32143020629883
C 65.99445343017578 48.06850051879883 53.41010284423828
C 66.5467758178711 49.32436752319336 53.0741081237793
C 67.38220977783203 49.47628402709961 55.321205139160156
C 60.99869918823242 52.494197845458984 54.92607498168945
C 60.661861419677734 51.0560417175293 55.29925537109375
C 61.773929595947266 52.21535110473633 53.577144622802734
C 61.5147819519043 50.92544174194336 53.192630767822266
C 64.21852111816406 51.74757766723633 58.438941955566406
C 60.998653411865234 50.487369537353516 56.53416061401367
C 65.07328033447266 53.24551010131836 54.055572509765625
C 62.06117630004883 48.978084564208984 57.79813766479492
C 61.32414627075195 48.289310455322266 55.5728874206543
C 63.65798568725586 50.4952278137207 58.73804473876953
C 62.992862701416016 52.82901382446289 53.32465362548828
C 65.2243423461914 47.6471061706543 57.25510025024414
C 66.45405578613281 48.2365608215332 56.932708740234375
C 67.27584838867188 49.9912223815918 54.06589126586914
C 66.12490844726562 47.52475357055664 54.65657043457031
C 61.88081741333008 53.22288131713867 56.03329086303711
C 62.16208267211914 52.41537094116211 57.280025482177734
C 63.327327728271484 53.57639694213867 55.62559127807617
C 63.51755905151367 52.6444206237793 57.67235565185547
C 67.36453247070312 50.2514533996582 56.415645599365234
C 60.858768463134766 50.21889877319336 54.17778396606445
C 63.7337760925293 53.48505783081055 54.30351638793945
C 64.15831756591797 53.31338882446289 56.676082611083984
C 63.87289047241211 52.17914962768555 52.492374420166016
C 65.59432220458984 51.53506851196289 58.16145706176758
C 61.62205123901367 51.17363357543945 57.576072692871094
C 61.23807144165039 49.13822555541992 56.67342758178711
C 62.4236946105957 50.291019439697266 52.375389099121094
C 61.08707809448242 48.82332992553711 54.292667388916016
C 66.92193603515625 48.186100006103516 55.614505767822266
C 62.3184700012207 50.22970962524414 58.316123962402344
C 66.2547836303711 52.2702522277832 57.205047607421875
C 64.03130340576172 48.68989181518555 52.24395751953125
C 64.56395721435547 49.95682144165039 51.901947021484375
C 66.19873046875 51.50233840942383 52.8134765625
C 66.91752624511719 52.149112701416016 55.05979919433594
C 63.1826057434082 47.15578842163086 56.569488525390625
C 64.35492706298828 48.27042770385742 58.09932327270508
C 67.0261459350586 51.34799575805664 53.92308807373047
C 64.91289520263672 46.88872146606445 55.03648376464844
C 59.82770919799805 53.41611099243164 54.7221565246582
N 59.83901596069336 54.411678314208984 55.45145797729492
C 60.999629974365234 54.428218841552734 56.35332489013672
H 60.78752517700195 54.52938461303711 57.4207649230957
H 61.55935287475586 55.319515228271484 56.0584716796875
C 56.64482498168945 52.302486419677734 52.02107620239258
C 56.47855758666992 52.41013717651367 53.39918899536133
H 55.51399612426758 52.18442153930664 53.8466682434082
C 57.5460319519043 52.7552375793457 54.270347595214844
H 57.375553131103516 52.85976791381836 55.33879470825195
C 58.80900192260742 53.03976821899414 53.74356460571289
C 57.90436935424805 52.680789947509766 51.510215759277344
H 57.96474075317383 52.67240524291992 50.424922943115234
C 59.02097702026367 53.0124626159668 52.35110855102539
H 59.94741439819336 53.15214157104492 51.79995346069336
C 55.49055862426758 51.899227142333984 51.18048095703125
C 54.13655471801758 51.81190872192383 51.81785583496094
C 53.6004524230957 50.95663833618164 52.75478744506836
H 54.02579116821289 50.07998275756836 53.23207092285156
C 52.2564582824707 51.38996505737305 53.00566101074219
H 51.40054702758789 50.986995697021484 53.53693771362305
C 51.9658317565918 52.49637985229492 52.27739334106445
N 53.08127212524414 52.68852615356445 51.510009765625
H 53.16836929321289 53.44942092895508 50.85002136230469
C 50.75069808959961 53.22804641723633 52.02947998046875
H 49.96713638305664 53.105831146240234 52.775814056396484
C 50.355777740478516 53.931270599365234 50.880882263183594
C 49.608028411865234 55.1065559387207 50.866363525390625
H 49.270076751708984 55.686893463134766 51.71855545043945
C 49.681644439697266 55.48063278198242 49.53790283203125
H 49.28011703491211 56.35805130004883 49.04178237915039
C 50.125614166259766 54.421138763427734 48.741085052490234
N 50.58151626586914 53.49496078491211 49.57615280151367
C 50.32771682739258 54.34580612182617 47.301761627197266
C 51.5309944152832 54.0675163269043 46.68648910522461
C 52.043209075927734 54.50577926635742 45.42072296142578
H 51.48385238647461 55.2617073059082 44.87950897216797
C 53.28451919555664 53.9731559753418 45.15301513671875
H 53.86921310424805 54.102535247802734 44.24823760986328
C 53.64773941040039 53.235416412353516 46.31275939941406
N 52.6074333190918 53.393550872802734 47.13471603393555
H 52.80134963989258 52.92995834350586 48.011985778808594
C 54.73051071166992 52.419857025146484 46.47787094116211
H 55.36919021606445 52.23257827758789 45.61593246459961
C 55.28542709350586 51.78255844116211 47.676124572753906
C 56.48831558227539 50.98261642456055 47.885711669921875
H 56.98489761352539 50.57649612426758 47.01066970825195
C 56.65970230102539 50.836002349853516 49.25296401977539
H 57.36796188354492 50.13602828979492 49.68380355834961
C 55.72378921508789 51.68556594848633 49.842044830322266
N 54.95368576049805 52.226383209228516 48.914058685302734
C 46.63003921508789 54.89522171020508 45.01393508911133
C 47.81229782104492 54.53475570678711 44.352230072021484
H 47.77775192260742 54.47853469848633 43.26723098754883
C 48.98031234741211 54.245662689208984 45.113861083984375
H 49.843631744384766 53.996578216552734 44.50213623046875
C 49.02029800415039 54.464229583740234 46.49327850341797
C 46.60738754272461 54.92007827758789 46.370704650878906
H 45.66005325317383 55.01362228393555 46.89545440673828
C 47.8028678894043 54.776554107666016 47.15822219848633
H 47.66194534301758 54.94096755981445 48.22343444824219
N 45.413734436035156 54.87636184692383 44.2811279296875
H 44.7867546081543 54.25923538208008 44.77522659301758
C 45.03839874267578 55.71163558959961 43.25895309448242
O 45.72927474975586 56.60190963745117 42.89918518066406
C 43.63380813598633 55.52865982055664 42.850040435791016
C 43.0583381652832 54.279170989990234 42.72523498535156
H 43.636962890625 53.36429977416992 42.8240852355957
C 41.6831169128418 54.16987991333008 42.45171356201172
C 40.91340255737305 55.341739654541016 42.23164749145508
H 39.85071563720703 55.44838333129883 42.02939987182617
C 41.517452239990234 56.55290603637695 42.5598030090332
H 40.876487731933594 57.42616653442383 42.469512939453125
C 42.829986572265625 56.68085861206055 42.7515869140625
H 43.23212432861328 57.69047164916992 42.72837829589844
C 41.07304382324219 52.847469329833984 42.35688400268555
H 41.81672668457031 52.0617790222168 42.48157501220703
C 39.77248764038086 52.531925201416016 42.20139694213867
H 39.05668258666992 53.32545852661133 41.99197769165039
C 39.129722595214844 51.247982025146484 42.014610290527344
C 40.09568405151367 50.098323822021484 42.19322967529297
H 39.586395263671875 49.16702651977539 42.44968032836914
H 40.701236724853516 50.327945709228516 43.07246017456055
H 40.61722946166992 49.894412994384766 41.25574493408203
C 37.79376220703125 50.9948616027832 41.992042541503906
H 37.220741271972656 51.910762786865234 41.855342864990234
C 37.064491271972656 49.758121490478516 42.07162857055664
H 37.631229400634766 48.82852554321289 42.04758834838867
C 35.74330520629883 49.71125411987305 42.07895278930664
H 35.22100067138672 50.66646957397461 42.05275344848633
C 34.81697082519531 48.62639236450195 42.19972610473633
C 33.47530746459961 48.814449310302734 41.56199264526367
H 33.29188919067383 48.247127532958984 40.64713668823242
H 32.72601318359375 48.4903678894043 42.28725051879883
H 33.180477142333984 49.85287857055664 41.397064208984375
C 35.102752685546875 47.444759368896484 42.78915786743164
H 36.090660095214844 47.39409255981445 43.244564056396484
C 34.32304382324219 46.22462844848633 42.84798049926758
H 33.355995178222656 46.264163970947266 42.34880828857422
C 34.60411071777344 45.19826889038086 43.68899917602539
H 35.47983932495117 45.098575592041016 44.32859420776367
C 33.6287956237793 44.116878509521484 43.70521545410156
H 32.971317291259766 44.040470123291016 42.840457916259766
C 33.578147888183594 43.154293060302734 44.64017105102539
C 34.46432876586914 43.174320220947266 45.83894348144531
H 34.24762725830078 42.50324630737305 46.67271041870117
H 35.401885986328125 42.8402214050293 45.389686584472656
H 34.461509704589844 44.145626068115234 46.33796310424805
C 32.754859924316406 41.92647171020508 44.53828430175781
H 32.98981475830078 41.24473190307617 45.354339599609375
C 31.807382583618164 41.62711715698242 43.63842010498047
H 31.41575050354004 42.29567337036133 42.87318801879883
C 31.079343795776367 40.39853286743164 43.59328079223633
H 31.370885848999023 39.721012115478516 44.39446258544922
C 30.115381240844727 39.921390533447266 42.75416946411133
C 29.53147315979004 40.8275032043457 41.75188064575195
H 29.2276554107666 41.70803451538086 42.32181930541992
H 30.317228317260742 41.24513626098633 41.118927001953125
H 28.786542892456055 40.497745513916016 41.024696350097656
C 29.67246437072754 38.56924057006836 42.837486267089844
H 29.49396324157715 38.12565231323242 41.859073638916016
C 29.622060775756836 37.79526901245117 43.91450881958008
H 29.74043083190918 38.18880081176758 44.922996520996094
C 29.447072982788086 36.2699089050293 43.857826232910156
C 28.2117977142334 35.70090866088867 44.17531967163086
C 26.90741539001465 36.42470169067383 44.49072265625
H 27.11928367614746 37.480281829833984 44.67330551147461
H 26.2749080657959 36.427303314208984 43.60055923461914
H 26.442312240600586 35.96733474731445 45.36648941040039
C 28.0899600982666 34.23611831665039 44.520240783691406
H 27.925668716430664 33.6524543762207 43.61205291748047
H 27.2272891998291 33.97218704223633 45.13554763793945
C 29.407445907592773 33.77726364135742 45.167884826660156
H 29.360105514526367 32.69931411743164 45.33598709106445
H 29.63327980041504 34.27749252319336 46.111934661865234
C 30.56962776184082 34.03395462036133 44.157798767089844
H 31.465002059936523 33.536556243896484 44.536434173583984
H 30.2898006439209 33.49479293823242 43.25034713745117
C 30.76810646057129 35.45846176147461 43.77472686767578
C 31.95799446105957 35.99417495727539 44.57820510864258
H 32.31770324707031 36.91862869262695 44.12162399291992
H 31.611623764038086 36.22366714477539 45.588069915771484
H 32.73806381225586 35.23466110229492 44.66239547729492
C 31.288663864135742 35.475772857666016 42.348411560058594
H 30.553865432739258 34.944820404052734 41.739627838134766
H 31.273698806762695 36.38472366333008 41.74338912963867
H 32.305564880371094 35.08833694458008 42.257450103759766
