207
Triad, Carotenoid-Porphyrin-C60
C 55.84844207763672 35.14687728881836 62.658905029296875
C 58.241512298583984 38.34629440307617 57.66120910644531
C 58.10145568847656 39.042293548583984 59.8746337890625
C 57.801544189453125 37.976932525634766 62.039581298828125
C 58.19735336303711 36.37802505493164 56.33879089355469
C 57.63124084472656 37.61362838745117 56.683250427246094
C 59.97168731689453 36.72251510620117 57.96979522705078
C 59.694419860839844 37.4224739074707 60.64985656738281
C 57.709407806396484 33.998409271240234 62.39032745361328
C 59.34077835083008 35.92885971069336 56.972816467285156
C 56.899784088134766 35.99738693237305 62.99840545654297
C 56.11983871459961 33.49228286743164 57.047386169433594
C 57.09342956542969 35.4943962097168 56.08171844482422
C 55.91127395629883 32.50566101074219 59.231956481933594
C 57.90098571777344 32.51152038574219 60.53307342529297
C 56.54576873779297 32.39652633666992 60.443817138671875
C 58.376338958740234 33.69710159301758 57.138336181640625
C 60.3857421875 35.84371566772461 59.01044464111328
C 60.276573181152344 36.1995964050293 60.3824462890625
C 59.589115142822266 33.98074722290039 60.927337646484375
C 53.95722198486328 38.13235855102539 59.457366943359375
C 54.2793083190918 37.55263900756836 58.081817626953125
C 55.30335998535156 38.87436294555664 59.74230194091797
C 56.053138732910156 38.86910629272461 58.60468292236328
C 54.595584869384766 33.50662612915039 60.69367980957031
C 54.05610275268555 36.16343307495117 57.8017578125
C 56.71518325805664 37.316837310791016 62.54644775390625
C 54.84934997558594 34.13632583618164 57.15888977050781
C 55.87297439575195 36.21420669555664 56.24237060546875
C 54.65297317504883 33.125640869140625 59.30872344970703
C 55.981590270996094 38.69002151489258 60.968963623046875
C 57.93846130371094 32.838134765625 58.088417053222656
C 58.58039093017578 32.75410079956055 59.308067321777344
C 59.938053131103516 35.26808547973633 61.35460662841797
C 60.090484619140625 34.5110969543457 58.598487854003906
C 53.55170440673828 37.0108757019043 60.552330017089844
C 53.55682373046875 35.57639694213867 60.049659729003906
C 54.469173431396484 36.93204879760742 61.776512145996094
C 54.09496307373047 34.75545883178711 61.025840759277344
C 58.50100326538086 33.32323455810547 61.469818115234375
C 55.44137954711914 38.1117057800293 57.59324645996094
C 55.54020309448242 37.7794075012207 61.947410583496094
C 54.691612243652344 35.58762741088867 62.012596130371094
C 57.37032699584961 38.798709869384766 61.031227111816406
C 55.74690246582031 33.01703643798828 61.365936279296875
C 53.60719680786133 35.22787857055664 58.71119689941406
C 54.77417755126953 35.516056060791016 56.83790588378906
C 57.44104766845703 38.93983840942383 58.637908935546875
C 56.209842681884766 37.47148513793945 56.678558349609375
C 59.66440963745117 33.59972381591797 59.55928039550781
C 54.14054870605469 33.9634895324707 58.33197784423828
C 56.32374572753906 33.877708435058594 62.37860107421875
C 59.396461486816406 37.93014144897461 58.27726745605469
C 59.283714294433594 38.27938461303711 59.60926055908203
C 59.011375427246094 37.29457473754883 61.87165832519531
C 58.03985595703125 35.29582595825195 62.81861877441406
C 57.24199295043945 34.149600982666016 56.51331329345703
C 56.58049011230469 32.65437698364258 58.01868438720703
C 59.16486740112305 35.96870040893555 62.26488494873047
C 59.43034744262695 34.582096099853516 57.3499755859375
C 52.75786590576172 39.05259323120117 59.50520324707031
N 51.7723503112793 38.61357498168945 60.218849182128906
C 52.08492660522461 37.332881927490234 60.98979187011719
H 51.225196838378906 36.733943939208984 60.678680419921875
H 52.09069061279297 37.440738677978516 62.07744598388672
C 52.69403076171875 42.96165084838867 57.69892120361328
C 52.97800064086914 41.83433151245117 56.9447021484375
H 53.09932327270508 42.052066802978516 55.88666534423828
C 53.08502197265625 40.52389144897461 57.480133056640625
H 53.3372917175293 39.68528366088867 56.836181640625
C 52.805023193359375 40.37922286987305 58.85625457763672
C 52.37584686279297 42.76890182495117 59.04168701171875
H 52.01021957397461 43.625545501708984 59.60209655761719
C 52.39349365234375 41.49331283569336 59.541709899902344
H 52.05147171020508 41.44350814819336 60.572296142578125
C 52.86278533935547 44.315547943115234 57.070289611816406
C 53.291690826416016 44.40128707885742 55.666259765625
C 54.472511291503906 44.06966018676758 54.989906311035156
H 55.31575393676758 43.60403823852539 55.48926544189453
C 54.403297424316406 44.4164924621582 53.558589935302734
H 55.10426712036133 44.05665969848633 52.81267547607422
C 53.25126647949219 45.11686325073242 53.442665100097656
N 52.57389450073242 45.04751205444336 54.67723083496094
H 51.65940475463867 45.45853805541992 54.807212829589844
C 52.5731086730957 45.68202590942383 52.30039596557617
H 53.223243713378906 45.61001205444336 51.42973327636719
C 51.479736328125 46.409854888916016 52.167579650878906
C 50.386131286621094 45.99248123168945 51.41044998168945
H 50.293731689453125 45.067378997802734 50.85110092163086
C 49.441490173339844 46.90127944946289 51.6230583190918
H 48.439300537109375 46.791622161865234 51.22203826904297
C 49.91001892089844 47.83478927612305 52.61614227294922
N 51.19321060180664 47.5197868347168 52.899627685546875
C 49.11743927001953 48.81010818481445 53.354400634765625
C 49.377288818359375 49.1641731262207 54.67981719970703
C 49.15483856201172 50.50260543823242 55.28045654296875
H 48.785213470458984 51.4079704284668 54.81044006347656
C 49.6673698425293 50.47812271118164 56.570587158203125
H 49.68440628051758 51.262630462646484 57.319915771484375
C 50.40310287475586 49.218326568603516 56.778480529785156
N 50.171810150146484 48.62265396118164 55.570518493652344
H 50.43291473388672 47.65695571899414 55.42431640625
C 51.04424285888672 48.78665542602539 57.85504913330078
H 50.98305130004883 49.58462142944336 58.59357452392578
C 51.800418853759766 47.54032516479492 58.057228088378906
C 52.59759521484375 47.1430549621582 59.160972595214844
H 52.768829345703125 47.807621002197266 60.001365661621094
C 52.98435974121094 45.85239028930664 58.93586730957031
H 53.568359375 45.21504592895508 59.591583251953125
C 52.46007537841797 45.45234298706055 57.76526641845703
N 51.82105255126953 46.531307220458984 57.225120544433594
C 45.854427337646484 50.50056076049805 51.19872283935547
C 45.7946891784668 50.51979446411133 52.53629684448242
H 44.95478057861328 50.97441482543945 53.05538558959961
C 46.89805221557617 50.07603073120117 53.29628372192383
H 46.839229583740234 50.29104232788086 54.36018371582031
C 47.95240783691406 49.439266204833984 52.647281646728516
C 46.843379974365234 49.82417678833008 50.51477813720703
H 46.761409759521484 49.83012771606445 49.43088912963867
C 47.966339111328125 49.34286117553711 51.23863983154297
H 48.82571029663086 48.9339714050293 50.71341323852539
N 44.79726791381836 51.18294906616211 50.431270599365234
H 43.948158264160156 51.314510345458984 50.96022033691406
C 44.97089385986328 51.89439010620117 49.2838020324707
O 46.0628776550293 52.057796478271484 48.83012390136719
C 43.64308547973633 52.45603561401367 48.664730072021484
C 43.7219123840332 53.02151870727539 47.432437896728516
H 44.64594650268555 52.935176849365234 46.86650466918945
C 42.60188674926758 53.626346588134766 46.89862823486328
C 41.451419830322266 53.70566177368164 47.60812759399414
H 40.6062126159668 54.23786544799805 47.17922592163086
C 41.35851287841797 53.26140213012695 48.944644927978516
H 40.41720199584961 53.206546783447266 49.4854736328125
C 42.51216125488281 52.70083999633789 49.47249984741211
H 42.49689483642578 52.335506439208984 50.49615478515625
C 42.79383850097656 54.50448226928711 45.66322326660156
H 43.788448333740234 54.47639083862305 45.22063446044922
C 41.88190841674805 55.3533821105957 45.13522720336914
H 40.85844802856445 55.47377395629883 45.487308502197266
C 42.137454986572266 56.151554107666016 43.900718688964844
C 43.49272918701172 56.71578598022461 43.649742126464844
H 43.428611755371094 57.79081344604492 43.468994140625
H 43.84878158569336 56.28303146362305 42.71250534057617
H 44.10685348510742 56.514827728271484 44.5300407409668
C 41.091129302978516 56.45357894897461 43.10805130004883
H 40.08686828613281 56.06215286254883 43.26350021362305
C 41.01949691772461 57.297176361083984 41.88779830932617
H 41.94333267211914 57.78689193725586 41.58345031738281
C 39.815879821777344 57.54495620727539 41.27398681640625
H 38.94221115112305 57.16690444946289 41.8028564453125
C 39.6141357421875 58.35939407348633 40.0960578918457
C 38.20835876464844 58.29140090942383 39.51020431518555
H 38.20854568481445 57.952632904052734 38.472084045410156
H 37.56092071533203 57.52804183959961 39.94676208496094
H 37.688987731933594 59.25192642211914 39.4996337890625
C 40.525943756103516 59.0693473815918 39.45995330810547
H 41.53570556640625 59.1560173034668 39.85844039916992
C 40.37294006347656 59.83931350708008 38.24527359008789
H 39.34953308105469 60.19106674194336 38.123538970947266
C 41.31203842163086 60.16948318481445 37.41654586791992
H 42.27684783935547 59.6863899230957 37.56378173828125
C 41.25669479370117 60.98994064331055 36.21743392944336
H 40.31264114379883 61.223262786865234 35.72728729248047
C 42.264862060546875 61.46433639526367 35.44390106201172
C 43.64409255981445 61.466732025146484 36.05754852294922
H 44.32619094848633 62.1728401184082 35.579410552978516
H 43.58491516113281 61.74393081665039 37.112117767333984
H 44.184165954589844 60.52236557006836 35.962791442871094
C 42.063175201416016 62.19611740112305 34.209625244140625
H 42.88636016845703 62.87836837768555 34.002685546875
C 41.04804992675781 62.18196487426758 33.36967849731445
H 40.25400161743164 61.47599411010742 33.608455657958984
C 41.07905960083008 62.89155960083008 32.12139129638672
H 41.73310852050781 63.75791549682617 32.03440856933594
C 40.3176155090332 62.691707611083984 31.025875091552734
C 39.319156646728516 61.56612777709961 31.073043823242188
H 38.54370880126953 61.69660568237305 31.830753326416016
H 38.88479232788086 61.44758224487305 30.078189849853516
H 39.85039520263672 60.65028762817383 31.340415954589844
C 40.37662887573242 63.548282623291016 29.902019500732422
H 40.7670783996582 64.55274963378906 30.05859375
C 40.08270263671875 63.19514846801758 28.621173858642578
H 39.910926818847656 62.13340377807617 28.450565338134766
C 40.174007415771484 63.869564056396484 27.356670379638672
C 39.96331024169922 65.2414321899414 27.224342346191406
C 39.46815872192383 66.15487670898438 28.268009185791016
H 40.300880432128906 66.68045806884766 28.74002456665039
H 38.725921630859375 66.86862182617188 27.90453338623047
H 39.003177642822266 65.50861358642578 29.015403747558594
C 40.18187713623047 66.08963012695312 26.02773666381836
H 40.43414306640625 67.13642120361328 26.20958709716797
H 39.1794319152832 66.18974304199219 25.60637664794922
C 41.09401321411133 65.3025894165039 25.018089294433594
H 42.16259765625 65.30247497558594 25.243011474609375
H 41.0223274230957 65.80510711669922 24.051239013671875
C 40.54053497314453 63.87589645385742 24.942581176757812
H 39.487144470214844 63.876338958740234 24.65477752685547
H 41.0472526550293 63.357845306396484 24.125675201416016
C 40.71188735961914 63.01920700073242 26.20119857788086
C 40.118133544921875 61.696224212646484 25.847980499267578
H 39.02969741821289 61.76133346557617 25.788570404052734
H 40.58987045288086 61.31211471557617 24.941123962402344
H 40.34017562866211 60.962039947509766 26.62523651123047
C 42.18741226196289 62.686893463134766 26.37143325805664
H 42.70237731933594 63.59749984741211 26.68457794189453
H 42.395835876464844 61.91695022583008 27.117237091064453
H 42.71095275878906 62.34511184692383 25.476131439208984
