207
Triad, Carotenoid-Porphyrin-C60
C 33.14260482788086 42.7583122253418 47.68058395385742
C 33.989688873291016 46.387115478515625 52.87018966674805
C 33.71005630493164 47.0094108581543 50.687747955322266
C 32.87843704223633 46.209835052490234 48.63679885864258
C 33.589237213134766 44.578731536865234 54.36404037475586
C 34.479103088378906 45.42776870727539 53.73752212524414
C 31.719316482543945 45.725242614746094 53.25666427612305
C 31.417184829711914 46.455047607421875 50.54172134399414
C 31.08994483947754 42.62993621826172 48.611331939697266
C 32.20008087158203 44.704933166503906 54.08745193481445
C 32.57925796508789 44.016109466552734 47.713504791259766
C 33.783538818359375 41.0862922668457 53.34455490112305
C 34.10714340209961 43.268341064453125 54.29524612426758
C 32.96023941040039 40.268428802490234 51.23842239379883
C 30.895902633666992 41.293357849121094 50.6584587097168
C 32.01236343383789 40.6002082824707 50.25979995727539
C 31.936525344848633 42.21842575073242 53.97511672973633
C 30.655855178833008 45.23666000366211 52.46059799194336
C 30.5202579498291 45.58767318725586 51.14509963989258
C 29.970983505249023 43.29458236694336 50.666011810302734
C 36.98195266723633 44.41364669799805 50.00441360473633
C 36.78788757324219 44.01352310180664 51.458316802978516
C 36.08152389526367 45.61513137817383 49.97146224975586
C 35.82316589355469 45.980289459228516 51.32698440551758
C 34.07083511352539 40.71698760986328 49.32700729370117
C 36.59995651245117 42.67817687988281 51.8239860534668
C 33.34902572631836 45.14480972290039 47.84685134887695
C 35.114402770996094 41.2293815612793 52.77427291870117
C 35.4014778137207 43.43230056762695 53.74361801147461
C 34.20322799682617 40.36042785644531 50.69047164916992
C 35.084041595458984 45.93632888793945 49.00510787963867
C 31.569787979125977 41.230709075927734 53.00260543823242
C 30.698209762573242 41.6834831237793 51.96345138549805
C 30.078073501586914 44.623836517333984 50.22517013549805
C 30.500898361206055 43.88015365600586 52.83578872680664
C 36.6089973449707 43.339149475097656 48.9279899597168
C 36.057456970214844 42.02190399169922 49.474849700927734
C 35.30984878540039 43.72761535644531 48.109989166259766
C 34.9879150390625 41.55018615722656 48.68387985229492
C 30.410188674926758 42.32212448120117 49.806278228759766
C 36.33727264404297 45.0607795715332 52.22043991088867
C 34.69804382324219 44.96660614013672 48.097782135009766
C 34.54206848144531 42.60624694824219 47.8811149597168
C 33.962703704833984 46.706459045410156 49.34878921508789
C 32.71398162841797 40.89147186279297 49.080135345458984
C 36.15704345703125 41.7284049987793 50.872257232666016
C 35.86796951293945 42.42234420776367 52.93357467651367
C 34.67359161376953 46.6893310546875 51.66572952270508
C 35.66822814941406 44.7743034362793 53.42049026489258
C 30.062559127807617 42.90922927856445 51.961124420166016
C 35.263153076171875 40.819244384765625 51.46769332885742
C 32.22947311401367 41.89654541015625 48.2701301574707
C 32.64180374145508 46.57522201538086 52.599788665771484
C 32.48013687133789 46.92147445678711 51.27324295043945
C 31.579633712768555 46.06549072265625 49.24965286254883
C 31.3038272857666 43.96220779418945 48.27401351928711
C 33.32151794433594 42.125118255615234 54.10848617553711
C 32.742103576660156 40.56066131591797 52.588863372802734
C 30.742048263549805 44.954708099365234 49.0573616027832
C 31.459299087524414 43.4993896484375 53.81296157836914
C 38.40663528442383 44.722900390625 49.67496871948242
N 38.89616394042969 44.07500457763672 48.68577194213867
C 37.862037658691406 43.121734619140625 48.0809211730957
H 38.34431457519531 42.16010665893555 48.27413558959961
H 37.75685501098633 43.28176498413086 47.004825592041016
C 40.82023620605469 47.671478271484375 51.84499740600586
C 41.01207733154297 46.261531829833984 51.97421646118164
H 41.86563491821289 45.846988677978516 52.50446701049805
C 40.21538162231445 45.334774017333984 51.26894760131836
H 40.31132125854492 44.2576904296875 51.379642486572266
C 39.19701385498047 45.70751953125 50.43046951293945
C 39.84550094604492 48.04587173461914 50.90260696411133
H 39.758914947509766 49.083709716796875 50.59122085571289
C 39.10103988647461 47.09772491455078 50.269405364990234
H 38.35679244995117 47.34789276123047 49.5176887512207
C 41.540679931640625 48.654884338378906 52.68045425415039
C 42.45669937133789 48.12604904174805 53.69772720336914
C 42.37501907348633 47.10630798339844 54.575260162353516
H 41.54212188720703 46.423770904541016 54.708126068115234
C 43.594383239746094 47.09003448486328 55.34688949584961
H 43.837738037109375 46.309452056884766 56.060115814208984
C 44.33858871459961 48.112247467041016 54.9199333190918
N 43.594112396240234 48.77898025512695 54.04549789428711
H 43.932247161865234 49.633888244628906 53.624874114990234
C 45.6239013671875 48.519596099853516 55.35258865356445
H 46.194908142089844 47.83953094482422 55.982975006103516
C 46.3571662902832 49.59575653076172 54.8951301574707
C 47.74647521972656 49.51277160644531 54.59842300415039
H 48.361183166503906 48.630741119384766 54.74466323852539
C 48.08958435058594 50.77122497558594 54.16270065307617
H 49.06165313720703 51.04764175415039 53.76787185668945
C 46.95954132080078 51.628929138183594 54.30508804321289
N 45.886844635009766 50.858673095703125 54.723690032958984
C 46.84717559814453 53.01113510131836 53.85251235961914
C 45.63347625732422 53.584007263183594 53.51591110229492
C 45.21961975097656 54.9807014465332 53.58778762817383
H 45.909366607666016 55.761409759521484 53.891048431396484
C 43.868324279785156 55.1290283203125 53.13735580444336
H 43.18620300292969 55.972740173339844 53.14692306518555
C 43.36790466308594 53.80728530883789 52.9276237487793
N 44.46516418457031 53.03348159790039 53.085384368896484
H 44.352256774902344 52.05757522583008 52.846683502197266
C 42.076290130615234 53.488121032714844 52.81437301635742
H 41.43046188354492 54.33209228515625 53.05215835571289
C 41.48005676269531 52.17535400390625 52.64322280883789
C 40.08006286621094 51.82658004760742 52.61655807495117
H 39.326324462890625 52.58993148803711 52.77903366088867
C 39.91340255737305 50.454383850097656 52.60831832885742
H 38.94137954711914 49.97390365600586 52.64754104614258
C 41.24517822265625 49.98487854003906 52.55118942260742
N 42.15724182128906 50.95571517944336 52.48662185668945
C 50.45756530761719 55.36738586425781 53.41435623168945
C 49.317962646484375 55.71508026123047 52.70950698852539
H 49.338905334472656 56.49342346191406 51.95101547241211
C 48.155982971191406 54.94906997680664 52.863094329833984
H 47.327003479003906 55.15311050415039 52.190242767333984
C 48.062278747558594 53.87187194824219 53.79787826538086
C 50.378562927246094 54.294456481933594 54.32033157348633
H 51.28900146484375 54.05006790161133 54.8615837097168
C 49.26640319824219 53.486663818359375 54.42964553833008
H 49.34339141845703 52.582733154296875 55.0284309387207
N 51.594886779785156 56.12006759643555 53.2812385559082
H 51.44483947753906 57.1174201965332 53.3103141784668
C 52.83750915527344 55.60239791870117 53.1250114440918
O 53.0667724609375 54.39820098876953 53.02339553833008
C 53.854713439941406 56.71343994140625 52.88944625854492
C 55.04255676269531 56.41694259643555 52.248355865478516
H 55.08296203613281 55.44960403442383 51.754207611083984
C 56.045265197753906 57.31417465209961 52.16463088989258
C 55.890655517578125 58.562950134277344 52.7372932434082
H 56.663780212402344 59.31072998046875 52.58017349243164
C 54.719512939453125 58.83952713012695 53.41630935668945
H 54.55213928222656 59.7623176574707 53.96586227416992
C 53.654808044433594 57.95591735839844 53.46451950073242
H 52.776023864746094 58.16018295288086 54.0708122253418
C 57.174530029296875 56.92744064331055 51.306034088134766
H 56.97474670410156 55.899044036865234 51.00870132446289
C 58.32304382324219 57.57585525512695 50.91457748413086
H 58.404685974121094 58.62309265136719 51.20188522338867
C 59.41377258300781 57.069461822509766 50.14817428588867
C 60.62638854980469 57.96284484863281 50.11013412475586
H 61.57359313964844 57.41947555541992 50.11448287963867
H 60.62113952636719 58.588783264160156 51.00491714477539
H 60.55955505371094 58.584678649902344 49.214969635009766
C 59.297760009765625 56.011356353759766 49.36085891723633
H 58.37641143798828 55.43643569946289 49.28017044067383
C 60.35307312011719 55.33026123046875 48.558345794677734
H 61.18487548828125 55.9633903503418 48.25309371948242
C 60.280860900878906 54.11507034301758 48.024784088134766
H 59.357330322265625 53.561302185058594 48.187137603759766
C 61.3038330078125 53.39841079711914 47.212894439697266
C 62.73479461669922 54.00251007080078 47.03812789916992
H 62.78460693359375 54.9870719909668 47.50783920288086
H 63.36620330810547 53.35877227783203 47.65407943725586
H 63.07624053955078 53.958621978759766 46.00181198120117
C 60.933631896972656 52.18844223022461 46.626583099365234
H 59.932533264160156 51.82537078857422 46.854373931884766
C 61.79682922363281 51.387386322021484 45.7629280090332
H 62.835418701171875 51.695438385009766 45.65175247192383
C 61.50312805175781 50.29024887084961 45.018558502197266
H 60.49339294433594 49.899688720703125 45.13613510131836
C 62.410316467285156 49.67940139770508 44.04042434692383
H 63.43177032470703 50.05487060546875 44.00075149536133
C 62.119041442871094 48.62565231323242 43.199466705322266
C 60.833473205566406 47.852142333984375 43.355899810791016
H 60.609519958496094 47.30130386352539 42.439998626708984
H 60.920188903808594 47.05390548706055 44.096012115478516
H 60.068824768066406 48.60383224487305 43.56265640258789
C 63.060768127441406 48.119083404541016 42.15478515625
H 62.635292053222656 47.461517333984375 41.39814758300781
C 64.30258178710938 48.555870056152344 41.915687561035156
H 64.68490600585938 49.344791412353516 42.56171798706055
C 65.1217041015625 48.025211334228516 40.77893829345703
H 64.63264465332031 47.42360305786133 40.01420974731445
C 66.39755249023438 48.20494842529297 40.38869857788086
C 67.28711700439453 49.074928283691406 41.149044036865234
H 68.11861419677734 48.425392150878906 41.43043899536133
H 67.81409454345703 49.781761169433594 40.50472640991211
H 66.9178695678711 49.54714584350586 42.061805725097656
C 66.92021179199219 47.48594284057617 39.16497039794922
H 66.18522644042969 46.80213928222656 38.74290084838867
C 68.13117980957031 47.48225784301758 38.63497543334961
H 68.85948181152344 47.937538146972656 39.30445861816406
C 68.54467010498047 46.74916458129883 37.44471740722656
C 67.87345886230469 46.875 36.29716873168945
C 66.60865020751953 47.74433517456055 35.953983306884766
H 66.83258056640625 48.753597259521484 35.60227584838867
H 66.01403045654297 47.162864685058594 35.24631881713867
H 65.98567962646484 47.721378326416016 36.850555419921875
C 68.30225372314453 46.24567413330078 35.00954818725586
H 67.94888305664062 46.80329132080078 34.139686584472656
H 67.76797485351562 45.305564880371094 34.85721969604492
C 69.80176544189453 46.007911682128906 35.08420944213867
H 70.30862426757812 46.97080612182617 35.17582702636719
H 70.18727111816406 45.49462890625 34.20081329345703
C 70.12517547607422 45.16010284423828 36.39714431762695
H 69.5283203125 44.24751281738281 36.33877944946289
H 71.15863800048828 44.80755615234375 36.38527297973633
C 69.79447937011719 45.89844512939453 37.690181732177734
C 69.6298599243164 44.88798522949219 38.71245574951172
H 70.46859741210938 44.199119567871094 38.83266067504883
H 69.5169448852539 45.427268981933594 39.65526580810547
H 68.75801086425781 44.25444030761719 38.53650665283203
C 70.97855377197266 46.702545166015625 38.15779113769531
H 70.69778442382812 47.123836517333984 39.125335693359375
H 71.8734130859375 46.09754943847656 38.31802749633789
H 71.1494369506836 47.50988006591797 37.442623138427734
