207
Triad, Carotenoid-Porphyrin-C60
C 39.83308029174805 56.454071044921875 33.980403900146484
C 39.43278121948242 50.16617202758789 32.96879577636719
C 38.28557205200195 51.399620056152344 34.49097442626953
C 37.715938568115234 53.72434997558594 34.844478607177734
C 40.64040756225586 50.32319641113281 30.939559936523438
C 40.646785736083984 50.061683654785156 32.288673400878906
C 38.3073844909668 50.95690155029297 31.017250061035156
C 36.94339370727539 52.47049331665039 32.840248107910156
C 38.64132308959961 56.38512420654297 32.10693359375
C 39.48896408081055 50.80279541015625 30.26217269897461
C 38.61869430541992 55.868629455566406 34.21091079711914
C 42.7836799621582 53.129966735839844 30.092159271240234
C 41.879215240478516 50.952598571777344 30.688865661621094
C 42.23933792114258 55.3971061706543 30.461502075195312
C 39.85246658325195 55.846832275390625 30.034168243408203
C 41.07967758178711 56.14250564575195 30.615909576416016
C 40.785892486572266 52.56438064575195 29.24013900756836
C 37.68681716918945 52.11198043823242 30.57913589477539
C 36.94899368286133 52.930545806884766 31.490524291992188
C 37.82829666137695 54.91762924194336 30.39654541015625
C 42.139102935791016 52.71086502075195 35.72690200805664
C 42.74650955200195 51.927032470703125 34.517791748046875
C 40.722782135009766 52.13749694824219 35.7728271484375
C 40.67824935913086 51.05192947387695 34.885704040527344
C 42.222415924072266 56.152801513671875 32.535274505615234
C 43.50291061401367 52.55613708496094 33.53954315185547
C 38.543453216552734 54.80089569091797 35.11349868774414
C 43.48737716674805 53.12882614135742 31.327159881591797
C 42.56086349487305 51.01341247558594 31.910099029541016
C 43.003597259521484 55.47238540649414 31.671646118164062
C 39.56197738647461 52.94290542602539 35.8820686340332
C 40.89445877075195 53.900108337402344 29.111804962158203
C 39.75606918334961 54.722312927246094 29.27957534790039
C 37.04059982299805 54.311073303222656 31.44005584716797
C 38.40773391723633 52.72260284423828 29.60409927368164
C 42.25186538696289 54.22113037109375 35.67778778076172
C 42.902164459228516 54.69064712524414 34.37332534790039
C 40.907962799072266 54.96009826660156 35.584163665771484
C 42.19953536987305 55.86703872680664 33.9134407043457
C 38.67136764526367 55.95450210571289 30.757781982421875
C 41.86527633666992 50.90746307373047 34.152000427246094
C 39.692935943603516 54.326904296875 35.707550048828125
C 40.9587287902832 55.95225143432617 34.65742111206055
C 38.34755325317383 52.568973541259766 35.308982849121094
C 41.10454177856445 56.65092849731445 31.926620483398438
C 43.6052360534668 53.93858337402344 33.4368782043457
C 43.41767501831055 52.05146408081055 32.233314514160156
C 39.456783294677734 50.63128662109375 34.27155685424805
C 41.86575698852539 50.36838150024414 32.861026763916016
C 38.55503463745117 54.10678482055664 29.492603302001953
C 43.6440544128418 54.31425094604492 32.07133865356445
C 39.860721588134766 56.7532844543457 32.64077377319336
C 38.31147384643555 50.58974838256836 32.3553352355957
C 37.5864143371582 51.359806060791016 33.279449462890625
C 36.9795036315918 53.66573715209961 33.64686584472656
C 37.83864212036133 55.870994567871094 33.07063674926758
C 41.94479751586914 52.10087966918945 29.830787658691406
C 42.124637603759766 54.279945373535156 29.652599334716797
C 37.074581146240234 54.73378372192383 32.76942825317383
C 39.55400466918945 51.931331634521484 29.440990447998047
C 42.855892181396484 52.40574645996094 37.00489807128906
N 43.48942184448242 53.38831329345703 37.538875579833984
C 43.1361198425293 54.69588851928711 36.88101577758789
H 44.05311965942383 55.234375 36.62844467163086
H 42.58900833129883 55.228397369384766 37.66316223144531
C 43.264522552490234 48.442291259765625 38.612972259521484
C 44.25430679321289 49.0278434753418 37.81599426269531
H 45.18221664428711 48.5447998046875 37.520668029785156
C 44.0493278503418 50.313533782958984 37.23042678833008
H 44.808650970458984 50.794254302978516 36.618953704833984
C 42.873775482177734 51.006507873535156 37.4847526550293
C 42.1150016784668 49.20289611816406 38.891727447509766
H 41.38713455200195 48.703739166259766 39.526248931884766
C 41.8900032043457 50.4636344909668 38.34037780761719
H 40.92361831665039 50.94852066040039 38.45244216918945
C 43.612606048583984 47.08325958251953 39.24678421020508
C 44.95585250854492 46.5430793762207 38.969871520996094
C 45.53532028198242 46.06721878051758 37.825836181640625
H 45.09738540649414 45.98841094970703 36.83627700805664
C 46.70663070678711 45.35950469970703 38.212833404541016
H 47.35519790649414 44.69297409057617 37.65398406982422
C 46.85799789428711 45.44225311279297 39.54453659057617
N 45.759952545166016 46.17670440673828 40.0235481262207
H 45.57441329956055 46.334312438964844 41.00480270385742
C 47.864131927490234 44.8614616394043 40.41554641723633
H 48.800174713134766 44.5775260925293 39.9368782043457
C 47.8219108581543 44.47168731689453 41.707706451416016
C 49.00935745239258 44.628231048583984 42.4140625
H 49.994686126708984 44.93484115600586 42.07887268066406
C 48.63645553588867 44.39949417114258 43.70909881591797
H 49.27187728881836 44.66169738769531 44.5485725402832
C 47.222774505615234 43.98778533935547 43.73952102661133
N 46.74526596069336 44.11855697631836 42.46039581298828
C 46.3674201965332 43.83655548095703 44.863677978515625
C 44.92441177368164 43.89143753051758 44.74242401123047
C 43.92129898071289 43.15135192871094 45.544029235839844
H 44.2692985534668 42.5843505859375 46.40113067626953
C 42.711002349853516 43.24659729003906 45.02922439575195
H 41.823848724365234 42.82350158691406 45.48876953125
C 42.78775405883789 44.043212890625 43.81706619262695
N 44.16215133666992 44.277889251708984 43.733642578125
H 44.52438735961914 44.81587219238281 42.95808410644531
C 41.74759292602539 44.47549057006836 43.00128173828125
H 40.77470779418945 44.14949035644531 43.36619186401367
C 41.856937408447266 45.30759048461914 41.797096252441406
C 40.798030853271484 45.57502746582031 40.875213623046875
H 39.793399810791016 45.18246841430664 40.99287796020508
C 41.395076751708984 46.21619415283203 39.79609680175781
H 40.88359451293945 46.418670654296875 38.86089324951172
C 42.69939041137695 46.489227294921875 40.12980270385742
N 42.96535110473633 45.8961296081543 41.32101058959961
C 48.13691329956055 43.48210906982422 48.9052848815918
C 46.834842681884766 43.842472076416016 48.73139953613281
H 46.27323532104492 44.00703811645508 49.64741516113281
C 46.21548843383789 43.926509857177734 47.473472595214844
H 45.17283248901367 44.233787536621094 47.4678840637207
C 46.92314529418945 43.71905517578125 46.25220489501953
C 48.81425094604492 43.13546371459961 47.76153564453125
H 49.67903518676758 42.478973388671875 47.813873291015625
C 48.275028228759766 43.328346252441406 46.477294921875
H 48.78268814086914 42.97469711303711 45.58354568481445
N 48.54640579223633 43.21963882446289 50.16081237792969
H 48.794254302978516 42.263919830322266 50.368812561035156
C 48.98971176147461 44.083335876464844 51.123355865478516
O 48.786678314208984 45.28053665161133 50.9942512512207
C 49.715396881103516 43.51173782348633 52.38187789916992
C 50.21747970581055 44.453304290771484 53.28193283081055
H 50.260005950927734 45.500614166259766 52.99399948120117
C 50.845455169677734 44.0208854675293 54.431217193603516
C 50.810062408447266 42.68217468261719 54.75007247924805
H 51.217159271240234 42.40673065185547 55.71959686279297
C 50.36526870727539 41.696144104003906 53.87644577026367
H 50.298954010009766 40.65052032470703 54.1660041809082
C 49.84904861450195 42.154605865478516 52.65132141113281
H 49.56907272338867 41.35918045043945 51.96540451049805
C 51.43037796020508 44.92648696899414 55.37848663330078
H 51.35029220581055 45.968963623046875 55.073936462402344
C 51.87728500366211 44.7568244934082 56.63652038574219
H 51.93826675415039 43.71554946899414 56.949485778808594
C 52.3398551940918 45.68384552001953 57.61872863769531
C 53.02260208129883 46.84897994995117 57.017822265625
H 52.38631820678711 47.733070373535156 56.940406799316406
H 53.2786750793457 46.71327590942383 55.96498107910156
H 53.97335433959961 47.09341812133789 57.49614715576172
C 52.43984603881836 45.4760627746582 58.90470886230469
H 51.76015090942383 44.70072555541992 59.25511932373047
C 53.03476333618164 46.506187438964844 59.871917724609375
H 53.30946731567383 47.44835662841797 59.399925231933594
C 53.39094924926758 46.333805084228516 61.17205810546875
H 53.28866195678711 45.291847229003906 61.471710205078125
C 54.02360916137695 47.29627990722656 62.063194274902344
C 53.7747917175293 48.72176742553711 61.70806121826172
H 53.63674545288086 49.19004821777344 62.684852600097656
H 54.639591217041016 49.13179397583008 61.18226623535156
H 52.816104888916016 48.726444244384766 61.18522644042969
C 54.841861724853516 46.82740020751953 63.018707275390625
H 54.90877914428711 45.74174118041992 63.071502685546875
C 55.644962310791016 47.620361328125 63.97411346435547
H 55.4477653503418 48.67311477661133 64.17093658447266
C 56.69023513793945 47.043087005615234 64.64631652832031
H 56.869441986083984 45.9827880859375 64.474365234375
C 57.53461837768555 47.675594329833984 65.65403747558594
H 57.076717376708984 48.59566879272461 66.01419067382812
C 58.636409759521484 47.094032287597656 66.23338317871094
C 59.095760345458984 45.77141189575195 65.65531158447266
H 58.75590133666992 45.5281982421875 64.64644622802734
H 60.18655776977539 45.72150421142578 65.6443099975586
H 58.63973617553711 45.03461456298828 66.31987762451172
C 59.30215835571289 47.4930534362793 67.42349243164062
H 58.91988754272461 48.47177505493164 67.70967102050781
C 60.32021713256836 46.93998718261719 68.15985107421875
H 60.749996185302734 46.0325927734375 67.73812866210938
C 60.95437240600586 47.59314727783203 69.32476043701172
H 60.4666633605957 48.487091064453125 69.7106704711914
C 62.059329986572266 47.16996383666992 70.02586364746094
C 62.88284683227539 46.061527252197266 69.52320861816406
H 62.207454681396484 45.22517013549805 69.33135223388672
H 63.314754486083984 46.24211502075195 68.5366439819336
H 63.57425308227539 45.66812515258789 70.27130889892578
C 62.61784744262695 47.78153991699219 71.17235565185547
H 63.6895637512207 47.665283203125 71.32674407958984
C 61.95774459838867 48.55788040161133 72.0832290649414
H 60.88420486450195 48.70868682861328 71.97987365722656
C 62.50259780883789 49.319496154785156 73.28224182128906
C 63.133663177490234 48.72670364379883 74.34711456298828
C 63.70121383666992 47.3213996887207 74.3005599975586
H 63.3524055480957 46.78470230102539 73.41581726074219
H 64.7901382446289 47.26863479614258 74.23809051513672
H 63.363704681396484 46.704463958740234 75.13599395751953
C 63.657466888427734 49.48064422607422 75.55824279785156
H 64.69731140136719 49.7474365234375 75.35823059082031
H 63.690067291259766 48.82246017456055 76.42899322509766
C 62.76044845581055 50.675941467285156 75.88821411132812
H 63.08546829223633 51.345298767089844 76.68746185302734
H 61.729679107666016 50.355464935302734 76.05335998535156
C 62.71828842163086 51.47498321533203 74.59398651123047
H 62.29720687866211 52.447269439697266 74.85820770263672
H 63.744998931884766 51.79722213745117 74.40826416015625
C 62.05704116821289 50.76235580444336 73.38505554199219
C 60.54677963256836 50.90019607543945 73.5993423461914
H 60.219181060791016 50.273292541503906 74.43128967285156
H 60.32059097290039 51.9483642578125 73.80586242675781
H 59.931339263916016 50.57474899291992 72.75804138183594
C 62.42441177368164 51.50581741333008 72.1716079711914
H 63.4924430847168 51.73176956176758 72.1448974609375
H 62.24324417114258 50.7932243347168 71.3642349243164
H 61.80759811401367 52.40005111694336 72.06040954589844
