207
Triad, Carotenoid-Porphyrin-C60
C 33.561038970947266 42.90160369873047 43.07781982421875
C 38.71138000488281 39.06452178955078 43.78587341308594
C 37.769134521484375 40.450313568115234 45.299842834472656
C 35.70893478393555 41.55724334716797 45.6728515625
C 38.09201431274414 37.8685302734375 41.77592468261719
C 38.89710235595703 38.801361083984375 42.44578552246094
C 36.905723571777344 37.44473648071289 43.80231475830078
C 35.78518295288086 39.16904067993164 45.60917663574219
C 32.506656646728516 40.85807800292969 43.26576232910156
C 37.11359405517578 37.18659591674805 42.454673767089844
C 33.77964401245117 42.3746452331543 44.360252380371094
C 35.99920654296875 39.1812858581543 39.17558670043945
C 37.86314392089844 38.366722106933594 40.476707458496094
C 33.98955154418945 40.320457458496094 39.59322738647461
C 32.728675842285156 39.36873245239258 41.43744659423828
C 33.02704620361328 40.42099380493164 40.555328369140625
C 35.667152404785156 37.51077651977539 40.632850646972656
C 35.55083084106445 37.3136100769043 44.02745056152344
C 34.9907341003418 38.22624969482422 44.970611572265625
C 33.021697998046875 38.53086853027344 43.558570861816406
C 38.30135726928711 43.39333724975586 42.25531768798828
C 38.663700103759766 42.23007583618164 41.33892059326172
C 38.39409255981445 42.6923828125 43.59812927246094
C 39.02979278564453 41.41659164428711 43.473167419433594
C 34.026344299316406 42.468467712402344 40.38349914550781
C 37.94978332519531 41.959007263183594 40.22102355957031
C 35.09680938720703 42.54307174682617 44.927879333496094
C 36.62202072143555 40.4810791015625 39.14033126831055
C 38.43609619140625 39.61277770996094 40.43450927734375
C 34.56892013549805 41.58411407470703 39.4647331237793
C 37.29011917114258 42.67922592163086 44.500816345214844
C 34.406158447265625 38.05829620361328 40.29076385498047
C 33.41935729980469 38.1585807800293 41.30265808105469
C 33.744361877441406 38.843109130859375 44.73991394042969
C 34.9039306640625 37.12922668457031 42.86138153076172
C 36.92763137817383 44.1224250793457 41.98728942871094
C 36.19586181640625 43.530494689941406 40.85621643066406
C 35.81291961669922 43.92710494995117 43.034446716308594
C 34.803794860839844 43.40972900390625 41.08338928222656
C 32.44875717163086 39.55977249145508 42.79680633544922
C 39.1900634765625 41.162288665771484 42.095603942871094
C 36.039093017578125 43.24327087402344 44.25340270996094
C 34.59306335449219 43.61111068725586 42.411109924316406
C 37.0458869934082 41.611915588378906 45.38249969482422
C 32.999366760253906 41.75695037841797 41.04949951171875
C 36.747074127197266 42.545814514160156 39.98277282714844
C 37.85906219482422 40.6457405090332 39.781517028808594
C 38.781986236572266 40.302730560302734 44.31114196777344
C 39.12201690673828 39.868282318115234 41.5872802734375
C 33.65903091430664 37.670631408691406 42.617042541503906
C 35.95683670043945 41.66901779174805 39.228824615478516
C 32.76449966430664 41.96343231201172 42.39246368408203
C 37.71482467651367 38.406898498535156 44.41040802001953
C 37.16048812866211 39.21923828125 45.39714813232422
C 35.06661605834961 40.331642150878906 45.78877258300781
C 33.12640380859375 41.11552047729492 44.496315002441406
C 36.59405517578125 38.223697662353516 39.92463684082031
C 34.63798141479492 39.12306213378906 39.385921478271484
C 33.812381744384766 40.11885070800781 45.223426818847656
C 35.86725616455078 36.996463775634766 41.909149169921875
C 39.293643951416016 44.5359992980957 42.24620819091797
N 38.75457000732422 45.684593200683594 42.05035400390625
C 37.333213806152344 45.55113983154297 41.851806640625
H 37.151363372802734 45.94084167480469 40.846954345703125
H 36.842445373535156 46.163543701171875 42.61256408691406
C 43.4255485534668 44.0728645324707 41.14923858642578
C 42.54747772216797 44.840328216552734 40.351722717285156
H 42.874778747558594 45.435489654541016 39.50305938720703
C 41.220802307128906 44.990299224853516 40.74195098876953
H 40.46760559082031 45.45258712768555 40.10906219482422
C 40.718563079833984 44.38780212402344 41.91339874267578
C 42.951011657714844 43.530330657958984 42.33097839355469
H 43.520938873291016 42.869075775146484 42.978660583496094
C 41.62303924560547 43.69426727294922 42.74507141113281
H 41.28667068481445 43.329193115234375 43.71210479736328
C 44.85694885253906 44.023197174072266 40.81726837158203
C 45.38380813598633 44.66523361206055 39.651275634765625
C 44.99571990966797 44.42182159423828 38.36115646362305
H 44.12176513671875 43.84793472290039 38.07118606567383
C 45.89181137084961 45.17754364013672 37.47805404663086
H 45.99791717529297 45.11224365234375 36.40023422241211
C 46.80799865722656 45.73749542236328 38.28752136230469
N 46.3930778503418 45.504756927490234 39.589969635009766
H 46.79376983642578 45.87898254394531 40.43939971923828
C 47.980712890625 46.4670524597168 37.850154876708984
H 47.964820861816406 46.8862419128418 36.845191955566406
C 49.139007568359375 46.84023666381836 38.530738830566406
C 50.35992431640625 47.332401275634766 37.97800827026367
H 50.55038070678711 47.6951904296875 36.973350524902344
C 51.18414306640625 47.359336853027344 39.03444290161133
H 52.20473861694336 47.727569580078125 39.03791046142578
C 50.508216857910156 46.98213577270508 40.237335205078125
N 49.268089294433594 46.60210037231445 39.89485168457031
C 50.95085525512695 46.840362548828125 41.61955261230469
C 50.77958679199219 45.67476272583008 42.272972106933594
C 51.83343505859375 44.83509063720703 42.89704895019531
H 52.83992385864258 45.185916900634766 43.09983825683594
C 51.19901657104492 43.658668518066406 43.35521697998047
H 51.51094436645508 42.853267669677734 44.01191711425781
C 49.857948303222656 43.5985107421875 42.89417266845703
N 49.729583740234375 44.7518310546875 42.202728271484375
H 48.84379577636719 44.97770690917969 41.77088165283203
C 48.947296142578125 42.65386199951172 43.165565490722656
H 49.20427703857422 41.78142166137695 43.764503479003906
C 47.56361770629883 42.67146301269531 42.74817657470703
C 46.613319396972656 41.60567855834961 42.79240417480469
H 46.78920364379883 40.58545684814453 43.11712646484375
C 45.49840545654297 42.02006530761719 42.11082458496094
H 44.72878646850586 41.34414291381836 41.75299835205078
C 45.76599884033203 43.2698974609375 41.64399719238281
N 46.97317123413086 43.66179275512695 42.02677917480469
C 53.066810607910156 50.17184066772461 43.322052001953125
C 52.960655212402344 48.97695541381836 44.054473876953125
H 53.463748931884766 48.98908615112305 45.017967224121094
C 52.187286376953125 47.92241668701172 43.495765686035156
H 52.07490921020508 47.0114860534668 44.07813262939453
C 51.675907135009766 47.99526596069336 42.21166229248047
C 52.47053527832031 50.28926467895508 42.095489501953125
H 52.575927734375 51.283199310302734 41.66822814941406
C 51.79891586303711 49.22404861450195 41.498924255371094
H 51.37810516357422 49.27518844604492 40.49798583984375
N 53.85356140136719 51.29268264770508 43.71189880371094
H 54.5550651550293 51.62582778930664 43.06769561767578
C 53.76845169067383 51.969905853271484 44.90375518798828
O 52.95968246459961 51.677249908447266 45.71849822998047
C 54.861328125 52.985225677490234 45.18518829345703
C 55.09929275512695 53.35065841674805 46.509605407714844
H 54.555973052978516 52.81033706665039 47.28058624267578
C 56.065494537353516 54.31819534301758 46.72723388671875
C 56.664669036865234 55.01863479614258 45.681236267089844
H 57.3466682434082 55.8465461730957 45.857337951660156
C 56.37009811401367 54.71210861206055 44.380271911621094
H 56.904293060302734 55.16524887084961 43.54908752441406
C 55.49428939819336 53.654911041259766 44.12767791748047
H 55.2628288269043 53.37114334106445 43.104217529296875
C 56.3970832824707 54.72035598754883 48.10809326171875
H 55.92279815673828 54.08015060424805 48.8504638671875
C 57.250545501708984 55.68770980834961 48.55622100830078
H 57.830081939697266 56.22860336303711 47.80956268310547
C 57.60988235473633 56.08268356323242 49.90586853027344
C 58.5694465637207 57.29738235473633 49.88493347167969
H 58.05929183959961 58.15451431274414 49.44049835205078
H 59.4789924621582 56.9890022277832 49.36524200439453
H 58.98807144165039 57.577335357666016 50.85387420654297
C 57.02345657348633 55.680416107177734 51.011688232421875
H 56.36423110961914 54.82548904418945 50.86872863769531
C 57.123600006103516 56.2137336730957 52.343421936035156
H 57.74100875854492 57.0858268737793 52.55359649658203
C 56.49770736694336 55.80290603637695 53.472015380859375
H 55.843265533447266 54.95267105102539 53.28565979003906
C 56.53445816040039 56.25230026245117 54.863319396972656
C 55.47315979003906 55.660404205322266 55.72045135498047
H 55.99006271362305 54.833316802978516 56.211578369140625
H 55.19425582885742 56.39686965942383 56.476959228515625
H 54.60443115234375 55.43812942504883 55.097267150878906
C 57.5340690612793 56.9982795715332 55.41314697265625
H 58.22255325317383 57.41550827026367 54.67976379394531
C 57.7130241394043 57.30119705200195 56.84386444091797
H 56.99850082397461 56.900943756103516 57.561622619628906
C 58.68691635131836 58.06649398803711 57.35009765625
H 59.49546432495117 58.44863510131836 56.72868347167969
C 58.81350326538086 58.35634231567383 58.770408630371094
H 58.127315521240234 57.8437614440918 59.442962646484375
C 59.7277717590332 59.09318161010742 59.418212890625
C 60.74832534790039 59.89986038208008 58.755165100097656
H 60.995059967041016 59.64621353149414 57.722084045410156
H 60.61348342895508 60.983455657958984 58.76594543457031
H 61.75374984741211 59.82480239868164 59.17462158203125
C 59.814212799072266 58.92549514770508 60.86707305908203
H 58.997135162353516 58.36574935913086 61.31983184814453
C 60.78011703491211 59.22920608520508 61.76410675048828
H 61.65663528442383 59.76192092895508 61.39826202392578
C 60.805477142333984 58.92985916137695 63.23918151855469
H 60.00168991088867 58.30062484741211 63.61854553222656
C 61.781558990478516 59.12788772583008 64.14794921875
C 63.121334075927734 59.69916915893555 63.78303527832031
H 63.6326789855957 60.20051956176758 64.60743713378906
H 63.784427642822266 58.973690032958984 63.307167053222656
H 62.963077545166016 60.434810638427734 62.991668701171875
C 61.83341598510742 58.42612838745117 65.42784118652344
H 62.82063674926758 58.17233657836914 65.81114196777344
C 60.724124908447266 58.04329299926758 66.17089080810547
H 59.71268844604492 58.2558708190918 65.8277816772461
C 60.741512298583984 57.39805221557617 67.53236389160156
C 61.43404006958008 56.26729965209961 67.74838256835938
C 62.40426254272461 55.643856048583984 66.75811767578125
H 62.09513473510742 55.66470718383789 65.71099853515625
H 63.3282356262207 56.2258186340332 66.76581573486328
H 62.62858200073242 54.613643646240234 67.0423812866211
C 61.41563034057617 55.583560943603516 69.0957260131836
H 62.37748336791992 55.738040924072266 69.589111328125
H 61.28475570678711 54.50178909301758 69.0242691040039
C 60.27279281616211 56.0243034362793 70.10137176513672
H 60.453617095947266 55.79408645629883 71.15340423583984
H 59.335819244384766 55.504756927490234 69.8901138305664
C 60.2167854309082 57.55337905883789 69.99156951904297
H 59.563411712646484 57.97652053833008 70.7574234008789
H 61.23078536987305 57.82608413696289 70.2914047241211
C 59.7788200378418 58.00400161743164 68.5843276977539
C 58.27402114868164 57.55732345581055 68.38790130615234
H 58.28904342651367 56.52921676635742 68.02015686035156
H 57.72159957885742 57.627933502197266 69.32721710205078
H 57.91964340209961 58.19657516479492 67.57658386230469
C 59.78346633911133 59.58089065551758 68.63117980957031
H 60.79243087768555 59.98356246948242 68.74208068847656
H 59.494144439697266 59.947139739990234 67.64395141601562
H 59.2122688293457 60.0329475402832 69.4447250366211
