207
Triad, Carotenoid-Porphyrin-C60
C 55.87449264526367 52.59660720825195 62.949153900146484
C 60.813236236572266 49.40483856201172 60.211082458496094
C 59.951698303222656 51.361392974853516 59.561187744140625
C 58.50193786621094 53.07357406616211 60.60533905029297
C 61.066104888916016 48.03538131713867 62.17421340942383
C 60.62582778930664 48.16304397583008 60.85430908203125
C 61.901798248291016 50.29592514038086 62.233272552490234
C 60.68399429321289 52.649383544921875 61.512882232666016
C 57.56500244140625 52.99403762817383 64.35005187988281
C 61.69015884399414 49.06778335571289 62.862091064453125
C 56.780250549316406 53.428340911865234 62.324459075927734
C 58.40415954589844 47.40874481201172 64.552001953125
C 60.08496856689453 47.24755859375 62.799442291259766
C 57.058204650878906 49.25278854370117 65.50784301757812
C 58.355255126953125 51.27667236328125 65.87858581542969
C 57.12999725341797 50.61798858642578 65.73006439208984
C 60.39374542236328 48.54509735107422 64.79078674316406
C 61.79180908203125 51.33648681640625 63.19012451171875
C 61.16122817993164 52.48980712890625 62.83403015136719
C 59.87982940673828 52.49284744262695 64.82679748535156
C 56.289772033691406 49.200618743896484 59.55636978149414
C 57.039546966552734 48.002052307128906 60.15483474731445
C 57.445899963378906 50.0412712097168 59.21010971069336
C 58.654510498046875 49.33307647705078 59.1976203918457
C 55.46533966064453 50.13819122314453 64.22901916503906
C 56.76688003540039 47.49776840209961 61.454036712646484
C 57.10845184326172 53.12765884399414 60.97029495239258
C 57.45978927612305 47.13583755493164 63.583709716796875
C 59.11123275756836 46.93165588378906 61.863975524902344
C 56.062477111816406 48.93824768066406 64.5837631225586
C 57.47476577758789 51.443477630615234 59.53586959838867
C 59.47880935668945 49.183197021484375 65.68315887451172
C 59.555137634277344 50.55976867675781 65.84984588623047
C 60.184104919433594 53.07720184326172 63.6298942565918
C 61.469078063964844 50.71047592163086 64.4109115600586
C 55.21455383300781 49.854496002197266 60.55287551879883
C 55.11708068847656 49.30104446411133 61.91062545776367
C 55.4924201965332 51.32840347290039 60.91908645629883
C 55.02265930175781 50.32398986816406 62.91712188720703
C 58.5666389465332 52.4142951965332 65.2119369506836
C 58.38287353515625 48.12440490722656 59.83395004272461
C 56.50185012817383 52.064186096191406 60.35111618041992
C 55.20814895629883 51.542972564697266 62.28921890258789
C 58.73063278198242 52.09687805175781 59.644378662109375
C 56.06201171875 51.183467864990234 64.96529388427734
C 55.85826873779297 48.13302230834961 62.2769660949707
C 57.7530403137207 46.931358337402344 62.244110107421875
C 59.85334396362305 49.99723434448242 59.40825653076172
C 59.38905715942383 47.53142547607422 60.63899230957031
C 60.498348236083984 51.367393493652344 65.25492095947266
C 56.26913070678711 47.95394515991211 63.60675811767578
C 56.313804626464844 52.384029388427734 64.23751831054688
C 61.42816162109375 50.450340270996094 60.914546966552734
C 60.9378547668457 51.63541793823242 60.54572677612305
C 59.514522552490234 53.31581497192383 61.493309020996094
C 57.8693962097168 53.641483306884766 63.177024841308594
C 59.757930755615234 47.494956970214844 64.15106964111328
C 58.269954681396484 48.47704315185547 65.46353149414062
C 59.17894744873047 53.644683837890625 62.77421188354492
C 61.41728210449219 49.29551315307617 64.22113800048828
C 55.45035171508789 48.8841438293457 58.33425521850586
N 54.22126007080078 49.08352279663086 58.480899810791016
C 53.899932861328125 49.75050354003906 59.79564666748047
H 53.163551330566406 49.058109283447266 60.21155548095703
H 53.38446807861328 50.683128356933594 59.55241775512695
C 56.966766357421875 46.71792984008789 54.9239387512207
C 56.255226135253906 46.02509689331055 55.93512725830078
H 56.2186164855957 44.93873596191406 55.92813491821289
C 55.70446014404297 46.777835845947266 56.99496078491211
H 55.05799102783203 46.285926818847656 57.717227935791016
C 55.96086883544922 48.15362548828125 57.12631607055664
C 57.0936164855957 48.080360412597656 54.9737548828125
H 57.53350067138672 48.55044174194336 54.09791946411133
C 56.67913818359375 48.742069244384766 56.10171127319336
H 56.926788330078125 49.79372024536133 56.22120666503906
C 57.65522003173828 45.96892166137695 53.81059265136719
C 57.54098129272461 44.487831115722656 53.72516632080078
C 57.709537506103516 43.51856231689453 54.66261291503906
H 58.055667877197266 43.75298309326172 55.66384506225586
C 57.30463409423828 42.22123336791992 54.113155364990234
H 57.45743179321289 41.23711395263672 54.543731689453125
C 56.734596252441406 42.48119354248047 52.874534606933594
N 56.976566314697266 43.81686782836914 52.66933059692383
H 56.635215759277344 44.29439163208008 51.8461799621582
C 56.06467819213867 41.63665008544922 51.946739196777344
H 55.789424896240234 40.65382385253906 52.32648849487305
C 55.56081008911133 41.95613479614258 50.68233108520508
C 54.24748611450195 41.61890411376953 50.45830154418945
H 53.6241340637207 41.08650588989258 51.16908645629883
C 53.97132110595703 42.3494758605957 49.376705169677734
H 52.95927429199219 42.59773635864258 49.0744514465332
C 55.067649841308594 43.10956954956055 48.9728889465332
N 56.113895416259766 42.86228942871094 49.77779769897461
C 55.15620803833008 43.996238708496094 47.833587646484375
C 56.07078552246094 45.04918670654297 47.756046295166016
C 56.95061111450195 45.400123596191406 46.629005432128906
H 56.87956619262695 44.986873626708984 45.62830352783203
C 57.94902420043945 46.276954650878906 47.059959411621094
H 58.81729507446289 46.52952575683594 46.46034622192383
C 57.80754089355469 46.433860778808594 48.453155517578125
N 56.64556884765625 45.7644157409668 48.78648376464844
H 56.324798583984375 45.88246154785156 49.737953186035156
C 58.62822341918945 47.12892532348633 49.26202392578125
H 59.394126892089844 47.70890426635742 48.74924087524414
C 58.73301696777344 47.160858154296875 50.73444747924805
C 59.65791320800781 47.86028289794922 51.600379943847656
H 60.51912307739258 48.3891487121582 51.20560836791992
C 59.285369873046875 47.363502502441406 52.88070297241211
H 59.695289611816406 47.45832061767578 53.88080596923828
C 58.17707061767578 46.63152313232422 52.76511001586914
N 57.912269592285156 46.504615783691406 51.43586730957031
C 52.31896209716797 43.70951461791992 44.586971282958984
C 53.220481872558594 44.819732666015625 44.69136047363281
H 53.109039306640625 45.69287109375 44.05356216430664
C 54.03286361694336 44.9412727355957 45.802581787109375
H 54.610252380371094 45.85935974121094 45.875389099121094
C 54.21849822998047 43.85019302368164 46.65703582763672
C 52.48676300048828 42.65152359008789 45.44765853881836
H 51.904212951660156 41.73428726196289 45.41794967651367
C 53.43346405029297 42.70146942138672 46.43339920043945
H 53.601829528808594 41.813507080078125 47.0373420715332
N 51.31901168823242 43.57412338256836 43.60886001586914
H 51.53061294555664 42.968326568603516 42.830196380615234
C 50.033203125 43.9456901550293 43.634498596191406
O 49.61903762817383 44.44721221923828 44.67120361328125
C 49.21394348144531 43.78628921508789 42.408302307128906
C 48.00613784790039 44.459659576416016 42.33882522583008
H 47.694969177246094 45.01433563232422 43.22034454345703
C 47.13063049316406 44.36671829223633 41.23299026489258
C 47.460968017578125 43.50175094604492 40.218971252441406
H 46.83182907104492 43.403377532958984 39.33802032470703
C 48.75278854370117 42.821327209472656 40.22797393798828
H 49.158607482910156 42.20941162109375 39.426448822021484
C 49.54966354370117 42.968360900878906 41.38279342651367
H 50.50767135620117 42.457275390625 41.433589935302734
C 45.8620719909668 45.08924102783203 41.275665283203125
H 45.911346435546875 45.719932556152344 42.162071228027344
C 44.82435989379883 45.302616119384766 40.39347457885742
H 44.94381332397461 44.76968002319336 39.451332092285156
C 43.61475372314453 46.073272705078125 40.586917877197266
C 43.27622604370117 46.48122024536133 41.99360656738281
H 42.498191833496094 47.24701690673828 42.0196647644043
H 44.12682342529297 46.898101806640625 42.536895751953125
H 42.953033447265625 45.60598373413086 42.561038970947266
C 42.80618667602539 46.341976165771484 39.54609680175781
H 43.12968063354492 45.997196197509766 38.5650749206543
C 41.59749984741211 47.164913177490234 39.50918197631836
H 41.133949279785156 47.39696502685547 40.46688461303711
C 40.96746826171875 47.567745208740234 38.35942840576172
H 41.36384963989258 47.31733322143555 37.37652587890625
C 39.69624710083008 48.342628479003906 38.28681945800781
C 38.78249740600586 48.19198226928711 39.49600601196289
H 38.939056396484375 49.07421875 40.12019729614258
H 37.75330352783203 48.05937576293945 39.15595245361328
H 38.96767044067383 47.24161148071289 40.00095748901367
C 39.33960723876953 48.983795166015625 37.16897964477539
H 40.15349578857422 49.02350997924805 36.446529388427734
C 38.05453109741211 49.519832611083984 36.854698181152344
H 37.325279235839844 49.6364860534668 37.65501403808594
C 37.745792388916016 50.04624557495117 35.63593292236328
H 38.374080657958984 50.13113021850586 34.75051498413086
C 36.450927734375 50.65578079223633 35.406070709228516
H 35.705997467041016 50.06422424316406 35.93622970581055
C 36.16471862792969 51.72895812988281 34.65068435668945
C 37.216461181640625 52.57613754272461 34.00706481933594
H 37.05113220214844 53.6555061340332 33.997947692871094
H 38.19807052612305 52.388301849365234 34.44709777832031
H 37.19632339477539 52.38747024536133 32.93167495727539
C 34.849639892578125 52.26968002319336 34.55180740356445
H 34.77406692504883 53.33055877685547 34.31782913208008
C 33.714046478271484 51.66261291503906 34.945159912109375
H 33.80281448364258 50.69855880737305 35.44379806518555
C 32.37721633911133 52.14605712890625 34.681373596191406
H 32.271385192871094 53.108455657958984 34.182861328125
C 31.24866485595703 51.523624420166016 35.04729461669922
C 31.197296142578125 50.28567886352539 35.86512756347656
H 31.88694190979004 49.50139617919922 35.54613494873047
H 31.55746078491211 50.61891555786133 36.840675354003906
H 30.201492309570312 49.837528228759766 35.864925384521484
C 29.910234451293945 52.09409713745117 34.78546142578125
H 29.100889205932617 51.4130973815918 35.044532775878906
C 29.549156188964844 53.32692337036133 34.38187026977539
H 30.312488555908203 54.10153579711914 34.325138092041016
C 28.219066619873047 53.88182067871094 34.058170318603516
C 27.132217407226562 53.15761947631836 33.7669677734375
C 27.00031852722168 51.702423095703125 33.446983337402344
H 27.8355655670166 51.32206344604492 32.85525131225586
H 27.035932540893555 51.14126968383789 34.383094787597656
H 26.083391189575195 51.39563751220703 32.939453125
C 25.83807945251465 53.73042678833008 33.320838928222656
H 25.066953659057617 53.06350326538086 33.71204376220703
H 25.765119552612305 53.59122848510742 32.24020767211914
C 25.552318572998047 55.22541809082031 33.70378494262695
H 25.3452091217041 55.37877655029297 34.76493835449219
H 24.650070190429688 55.632232666015625 33.24235534667969
C 26.822031021118164 55.985042572021484 33.176734924316406
H 26.959354400634766 55.70140838623047 32.131195068359375
H 26.741291046142578 57.07403564453125 33.1826286315918
C 28.061174392700195 55.49123764038086 34.02091598510742
C 29.19462013244629 56.25104904174805 33.33577346801758
H 29.305707931518555 55.80552673339844 32.344993591308594
H 28.89061164855957 57.24958419799805 33.014888763427734
H 30.19929313659668 56.143558502197266 33.74995040893555
C 28.13438606262207 56.081695556640625 35.45118713378906
H 27.84307861328125 57.12521743774414 35.314571380615234
H 27.39391326904297 55.63277053833008 36.11648941040039
H 29.139440536499023 56.00138854980469 35.870567321777344
