207
Triad, Carotenoid-Porphyrin-C60
C 32.40862274169922 37.582786560058594 48.19953155517578
C 33.0440788269043 41.84969711303711 53.0511474609375
C 32.73158645629883 42.125823974609375 50.853057861328125
C 31.91205596923828 40.98915481567383 48.921119689941406
C 32.62779235839844 40.01957702636719 54.660316467285156
C 33.4809455871582 40.8817253112793 53.97991943359375
C 30.742115020751953 40.91746520996094 53.464263916015625
C 30.412471771240234 41.408546447753906 50.68946838378906
C 30.28619384765625 37.363250732421875 49.112823486328125
C 31.196453094482422 40.03400421142578 54.393775939941406
C 31.755516052246094 38.77770233154297 48.131629943847656
C 33.0563850402832 36.45679473876953 54.000083923339844
C 33.225521087646484 38.75946807861328 54.71259307861328
C 32.26646423339844 35.34001922607422 52.00548553466797
C 30.134559631347656 36.17991638183594 51.227760314941406
C 31.346118927001953 35.53443145751953 51.021827697753906
C 31.13088607788086 37.60641860961914 54.34820556640625
C 29.715389251708984 40.2661018371582 52.69879150390625
C 29.540828704833984 40.542747497558594 51.320526123046875
C 29.098304748535156 38.16444396972656 51.019081115722656
C 36.062068939208984 39.62737274169922 50.40724182128906
C 35.972408294677734 39.312110900878906 51.89625549316406
C 35.14447784423828 40.83911895751953 50.29949188232422
C 34.859397888183594 41.20890426635742 51.58061981201172
C 33.38397216796875 35.7144660949707 50.09813690185547
C 35.743656158447266 38.002197265625 52.344947814941406
C 32.478363037109375 39.98691177368164 48.22675323486328
C 34.33342742919922 36.61781692504883 53.39740753173828
C 34.51785659790039 38.860633850097656 54.23310852050781
C 33.55803680419922 35.42444610595703 51.430458068847656
C 34.14330291748047 40.95368957519531 49.34666442871094
C 30.820087432861328 36.52584457397461 53.516815185546875
C 29.878070831298828 36.69999313354492 52.473793029785156
C 29.21680450439453 39.491519927978516 50.48506164550781
C 29.519699096679688 38.98929977416992 53.24543762207031
C 35.754329681396484 38.416969299316406 49.403953552246094
C 35.38390350341797 37.09356689453125 50.07403564453125
C 34.485931396484375 38.69304275512695 48.49280548095703
C 34.27670669555664 36.56031036376953 49.390281677246094
C 29.64678192138672 37.0853385925293 50.31525421142578
C 35.311222076416016 40.34410858154297 52.53300476074219
C 33.85770797729492 39.89310073852539 48.48826599121094
C 33.76435089111328 37.53491973876953 48.459228515625
C 32.92914962768555 41.62250518798828 49.60929870605469
C 32.038177490234375 35.74100875854492 49.82124328613281
C 35.43544387817383 36.89152908325195 51.457542419433594
C 35.08043670654297 37.76047134399414 53.551116943359375
C 33.72908401489258 42.00056457519531 51.84388732910156
C 34.61658477783203 40.16277313232422 53.724937438964844
C 29.17181396484375 37.940399169921875 52.421287536621094
C 34.57341003417969 36.03044128417969 52.125831604003906
C 31.538223266601562 36.706886291503906 48.917335510253906
C 31.60265350341797 41.80744934082031 52.80670166015625
C 31.432296752929688 42.022926330566406 51.433509826660156
C 30.632591247558594 40.92254638671875 49.411476135253906
C 30.449722290039062 38.65096664428711 48.66101837158203
C 32.475547790527344 37.57829284667969 54.606903076171875
C 31.979511260986328 35.88155746459961 53.234703063964844
C 29.847118377685547 39.76265335083008 49.269874572753906
C 30.46495819091797 38.818668365478516 54.27831268310547
C 37.491207122802734 40.02947235107422 49.941619873046875
N 37.9111442565918 39.47026443481445 48.863525390625
C 37.0498161315918 38.294700622558594 48.58441162109375
H 37.610687255859375 37.419742584228516 48.922821044921875
H 36.94904327392578 38.120765686035156 47.51005554199219
C 39.7313232421875 43.110774993896484 52.08582305908203
C 39.90483856201172 41.76338195800781 52.36029052734375
H 40.656394958496094 41.493438720703125 53.09776306152344
C 39.13542175292969 40.83494186401367 51.65306854248047
H 39.33061981201172 39.811439514160156 51.96276092529297
C 38.225250244140625 41.14377975463867 50.622230529785156
C 38.9322509765625 43.38521194458008 50.96562194824219
H 38.92814636230469 44.40045166015625 50.577232360839844
C 38.21833038330078 42.41991424560547 50.19757080078125
H 37.65488052368164 42.681610107421875 49.30560302734375
C 40.432701110839844 44.22400665283203 52.798614501953125
C 41.35716247558594 43.82427215576172 53.849449157714844
C 41.26829528808594 42.961177825927734 54.951805114746094
H 40.35234832763672 42.40481948852539 55.12132263183594
C 42.470829010009766 42.977230072021484 55.70201110839844
H 42.74522018432617 42.50194549560547 56.63798522949219
C 43.2239875793457 43.959346771240234 55.1580810546875
N 42.60386276245117 44.427040100097656 54.010231018066406
H 42.8945426940918 45.22914123535156 53.4677734375
C 44.5144157409668 44.50469207763672 55.65668487548828
H 44.69638442993164 44.41431427001953 56.7265625
C 45.192813873291016 45.5544319152832 55.204505920410156
C 46.42384719848633 46.04449462890625 55.76678466796875
H 46.93288803100586 45.56163024902344 56.594398498535156
C 46.757259368896484 47.109947204589844 55.00746154785156
H 47.60673904418945 47.7779541015625 55.104270935058594
C 45.90211868286133 47.14851760864258 53.85265350341797
N 44.89358901977539 46.25117111206055 54.05097961425781
C 45.84794998168945 48.08430862426758 52.708595275878906
C 44.71683883666992 48.773597717285156 52.34169006347656
C 44.54279708862305 50.1337776184082 51.99249267578125
H 45.39474868774414 50.8054313659668 52.009361267089844
C 43.20341110229492 50.40168380737305 51.857032775878906
H 42.6002082824707 51.293880462646484 51.72528839111328
C 42.49082565307617 49.16573715209961 51.964454650878906
N 43.46689987182617 48.324058532714844 52.28871154785156
H 43.240962982177734 47.358402252197266 52.485130310058594
C 41.165252685546875 48.9300422668457 51.90748596191406
H 40.546268463134766 49.78785705566406 51.648780822753906
C 40.389320373535156 47.70634841918945 52.09892272949219
C 39.028709411621094 47.43648147583008 52.01646423339844
H 38.265296936035156 48.179447174072266 51.81048583984375
C 38.907596588134766 46.06074142456055 52.31812286376953
H 38.0145378112793 45.4603157043457 52.45655059814453
C 40.18308639526367 45.5745849609375 52.449127197265625
N 41.009124755859375 46.545894622802734 52.22180938720703
C 49.4736213684082 48.70063018798828 50.375404357910156
C 48.29951095581055 49.32781219482422 49.98406219482422
H 48.290287017822266 49.99015426635742 49.12220764160156
C 47.129451751708984 49.038211822509766 50.69542694091797
H 46.19966506958008 49.4329833984375 50.29389953613281
C 47.07278060913086 48.20216751098633 51.832435607910156
C 49.50545120239258 47.861000061035156 51.49000549316406
H 50.3900032043457 47.29020309448242 51.76080322265625
C 48.321346282958984 47.643306732177734 52.246665954589844
H 48.42106246948242 47.11201477050781 53.189727783203125
N 50.66611099243164 48.858642578125 49.51283264160156
H 50.479740142822266 48.66393280029297 48.540496826171875
C 51.89321517944336 49.25726318359375 49.86381530761719
O 52.16824722290039 49.454715728759766 51.04808044433594
C 52.9091911315918 49.56610870361328 48.81361389160156
C 54.1552848815918 50.083927154541016 49.04704284667969
H 54.48875045776367 50.135250091552734 50.080352783203125
C 55.00193405151367 50.608734130859375 48.034629821777344
C 54.676570892333984 50.29020309448242 46.72234344482422
H 55.31925582885742 50.600791931152344 45.902549743652344
C 53.500789642333984 49.573326110839844 46.46965026855469
H 53.26121139526367 49.278987884521484 45.4510498046875
C 52.63444900512695 49.184818267822266 47.50953674316406
H 51.778011322021484 48.5596923828125 47.2701416015625
C 56.196964263916016 51.47335433959961 48.42469024658203
H 56.345035552978516 51.50178146362305 49.503204345703125
C 57.11909866333008 52.033267974853516 47.64006042480469
H 56.96046829223633 52.08544158935547 46.563934326171875
C 58.34160232543945 52.73313903808594 48.07572937011719
C 58.81789016723633 52.54856491088867 49.49981689453125
H 58.579830169677734 51.56393051147461 49.9075927734375
H 58.31814193725586 53.314720153808594 50.09623718261719
H 59.90335464477539 52.66756820678711 49.5078125
C 59.1218376159668 53.38413619995117 47.19727325439453
H 58.6859245300293 53.422698974609375 46.20006561279297
C 60.401309967041016 54.09540939331055 47.27394104003906
H 60.652164459228516 54.44355392456055 48.27483367919922
C 61.19504165649414 54.26898956298828 46.24645233154297
H 60.72878646850586 53.83110427856445 45.36509704589844
C 62.5067253112793 54.82933044433594 46.257179260253906
C 63.03340530395508 55.30421447753906 47.556304931640625
H 62.703983306884766 54.72834014892578 48.42366027832031
H 64.11929321289062 55.207923889160156 47.61986541748047
H 62.779476165771484 56.35673522949219 47.69837951660156
C 63.13949966430664 55.03143310546875 45.06194305419922
H 62.60701370239258 54.66948318481445 44.18365478515625
C 64.33255004882812 55.78483963012695 44.83690643310547
H 64.57658386230469 56.47803497314453 45.64055633544922
C 64.765625 56.055442810058594 43.629981994628906
H 64.29891204833984 55.47801208496094 42.83331298828125
C 65.56591796875 57.201908111572266 43.19707489013672
H 65.85665893554688 57.97611999511719 43.90558624267578
C 66.23896026611328 57.34465026855469 42.082950592041016
C 66.18478393554688 56.28961944580078 41.03302001953125
H 66.85729217529297 55.46752166748047 41.28668212890625
H 65.17451477050781 55.980224609375 40.757171630859375
H 66.5145263671875 56.73989486694336 40.09440994262695
C 67.19514465332031 58.459590911865234 41.96238327026367
H 67.76924896240234 58.39872360229492 41.03900909423828
C 67.20580291748047 59.6470947265625 42.59458541870117
H 66.4205322265625 59.84996795654297 43.32129669189453
C 68.06378173828125 60.77085876464844 42.13198471069336
H 68.9649429321289 60.407249450683594 41.64043426513672
C 67.83834838867188 62.107418060302734 42.09521484375
C 66.51217651367188 62.6336669921875 42.54349899291992
H 65.85202026367188 62.22569274902344 41.77524948120117
H 66.07568359375 62.15803909301758 43.42424774169922
H 66.33013916015625 63.70940399169922 42.497528076171875
C 68.68186950683594 63.1985969543457 41.602291107177734
H 68.17411804199219 64.1369400024414 41.384063720703125
C 70.0138931274414 63.164268493652344 41.375911712646484
H 70.59798431396484 62.248046875 41.448665618896484
C 70.86933135986328 64.2098159790039 40.90132141113281
C 70.6736831665039 64.87113189697266 39.71377182006836
C 69.52565002441406 64.57649230957031 38.73707580566406
H 69.44293975830078 63.53467559814453 38.42046356201172
H 68.54035186767578 64.76473236083984 39.168617248535156
H 69.43557739257812 65.1147689819336 37.79123306274414
C 71.5234603881836 66.10343933105469 39.25490951538086
H 70.83139038085938 66.941162109375 39.14665603637695
H 71.92223358154297 65.8658447265625 38.2664794921875
C 72.7020263671875 66.59040832519531 40.1285285949707
H 72.36514282226562 67.33193969726562 40.85592269897461
H 73.40544128417969 67.2475357055664 39.61293029785156
C 73.23644256591797 65.31129455566406 40.759124755859375
H 73.52058410644531 64.59796142578125 39.982662200927734
H 74.09120178222656 65.5092544555664 41.40925216674805
C 72.17301177978516 64.54508972167969 41.61917495727539
C 72.92819213867188 63.338321685791016 42.120784759521484
H 72.44656372070312 62.912113189697266 43.0033073425293
H 72.97419738769531 62.571327209472656 41.3448600769043
H 73.9173812866211 63.561466217041016 42.52596664428711
C 71.8614501953125 65.21759796142578 42.963016510009766
H 71.77191925048828 66.30146789550781 42.8646354675293
H 70.90180969238281 64.83692932128906 43.318878173828125
H 72.66075134277344 65.0762939453125 43.693504333496094
