207
Triad, Carotenoid-Porphyrin-C60
C 45.387962341308594 42.207645416259766 29.670093536376953
C 51.49277877807617 41.643943786621094 31.663127899169922
C 49.72637939453125 40.158729553222656 31.72842788696289
C 47.598880767822266 39.69702911376953 30.701000213623047
C 51.9694938659668 43.60149383544922 30.263446807861328
C 51.79625701904297 43.038639068603516 31.49120330810547
C 51.65640640258789 41.48020553588867 29.241958618164062
C 49.641483306884766 39.59722900390625 29.451744079589844
C 46.35896301269531 41.904842376708984 27.613895416259766
C 51.946834564208984 42.84257888793945 29.133193969726562
C 45.92063522338867 40.96894073486328 29.624679565429688
C 49.694061279296875 46.09565734863281 29.131004333496094
C 51.48496627807617 44.90756607055664 30.26779556274414
C 47.57264709472656 45.61072540283203 28.123626708984375
C 47.681610107421875 43.65895462036133 26.75366973876953
C 46.953041076660156 44.561790466308594 27.500534057617188
C 50.84260940551758 44.61137008666992 27.96102523803711
C 50.96181106567383 41.15683364868164 28.068286895751953
C 49.92666244506836 40.25955581665039 28.252239227294922
C 48.58316421508789 41.61558151245117 26.734153747558594
C 47.64787673950195 43.323036193847656 33.646400451660156
C 48.803958892822266 44.283145904541016 33.246307373046875
C 48.326900482177734 41.958553314208984 33.32957458496094
C 49.70564270019531 42.14210891723633 33.11540222167969
C 45.94511032104492 44.94908142089844 29.528194427490234
C 48.63734817504883 45.402889251708984 32.406253814697266
C 46.396297454833984 40.416114807128906 30.790748596191406
C 49.08049011230469 46.29582977294922 30.392459869384766
C 50.81577682495117 45.07316589355469 31.412555694580078
C 46.98862075805664 45.891963958740234 29.369598388671875
C 47.6155891418457 40.94314956665039 32.631813049316406
C 49.68790054321289 44.86940383911133 27.334510803222656
C 49.07085418701172 43.84443283081055 26.63854217529297
C 48.75502014160156 40.42039489746094 27.498260498046875
C 50.79269790649414 42.32926940917969 27.326919555664062
C 46.31049728393555 43.55736541748047 32.951148986816406
C 46.3443717956543 44.768402099609375 31.95615005493164
C 45.81755828857422 42.48183822631836 32.01166915893555
C 45.669700622558594 44.3448486328125 30.785682678222656
C 47.40300750732422 42.341312408447266 26.817485809326172
C 49.9417724609375 43.49127960205078 32.95745849609375
C 46.39261245727539 41.216278076171875 31.973236083984375
C 45.373470306396484 43.0085563659668 30.824359893798828
C 48.3682975769043 40.038551330566406 31.819293975830078
C 45.928409576416016 44.122493743896484 28.410545349121094
C 47.381412506103516 45.667877197265625 31.79029083251953
C 49.63134002685547 45.79777145385742 31.529212951660156
C 50.45186996459961 41.21379470825195 32.407745361328125
C 51.01679992675781 43.93495178222656 32.19779586791992
C 49.64216995239258 42.53114700317383 26.56307601928711
C 47.67301559448242 46.25322723388672 30.50733184814453
C 45.69186019897461 42.800899505615234 28.421615600585938
C 51.4784049987793 40.913902282714844 30.493206024169922
C 50.42985153198242 39.950504302978516 30.585262298583984
C 48.23391342163086 39.558040618896484 29.512290954589844
C 46.51242446899414 40.76613998413086 28.396278381347656
C 50.85175704956055 45.37297821044922 29.095069885253906
C 48.92346954345703 45.77898406982422 28.018409729003906
C 47.73790740966797 40.074920654296875 28.351085662841797
C 51.44974899291992 43.35477828979492 27.94329833984375
C 47.31486129760742 43.3848762512207 35.18690490722656
N 46.11391067504883 43.646305084228516 35.43836212158203
C 45.43179702758789 43.857643127441406 34.165550231933594
H 45.19241714477539 44.91927719116211 34.06414031982422
H 44.52935791015625 43.24151611328125 34.14021301269531
C 49.90113067626953 42.945457458496094 38.61143493652344
C 50.16291809082031 43.90085983276367 37.59728240966797
H 50.818050384521484 44.76447296142578 37.67814636230469
C 49.3655891418457 43.90753936767578 36.489402770996094
H 49.51888656616211 44.717960357666016 35.78138732910156
C 48.24662780761719 43.12397384643555 36.289756774902344
C 48.72182846069336 42.09186935424805 38.42981719970703
H 48.368553161621094 41.52972412109375 39.290496826171875
C 47.90129852294922 42.2845344543457 37.288818359375
H 46.99501419067383 41.6861457824707 37.24247741699219
C 50.72547912597656 42.976905822753906 39.81312561035156
C 51.85895919799805 43.890682220458984 39.92076873779297
C 52.79018020629883 44.294456481933594 39.013275146484375
H 52.96440124511719 44.03062438964844 37.975364685058594
C 53.49871826171875 45.34463119506836 39.683876037597656
H 54.09124755859375 46.10769271850586 39.190040588378906
C 53.089927673339844 45.46342849731445 41.01482391357422
N 52.153865814208984 44.54636001586914 41.139381408691406
H 51.80093002319336 44.323612213134766 42.060218811035156
C 53.448585510253906 46.54410934448242 41.98406219482422
H 53.99763488769531 47.408599853515625 41.61375427246094
C 52.93738555908203 46.669281005859375 43.283935546875
C 52.28887939453125 47.82511901855469 43.677833557128906
H 52.27442932128906 48.761810302734375 43.13044738769531
C 51.647308349609375 47.50871276855469 44.849403381347656
H 50.91815948486328 47.99134063720703 45.49177551269531
C 51.98405075073242 46.13601303100586 45.15898132324219
N 52.759681701660156 45.61397171020508 44.161598205566406
C 51.25743865966797 45.32521057128906 46.175018310546875
C 51.02693176269531 44.011634826660156 46.090431213378906
C 51.21125793457031 42.957603454589844 47.044677734375
H 51.53257751464844 43.16919708251953 48.059181213378906
C 50.894657135009766 41.74589920043945 46.436920166015625
H 50.9182243347168 40.72062301635742 46.79115295410156
C 50.6837043762207 41.939453125 45.053993225097656
N 50.78982162475586 43.27997970581055 44.9267578125
H 50.49510955810547 43.75397491455078 44.08378601074219
C 50.352638244628906 41.0086784362793 44.20148468017578
H 50.162872314453125 40.07939910888672 44.736610412597656
C 50.276039123535156 41.14403533935547 42.76026153564453
C 50.014617919921875 40.11637878417969 41.77886199951172
H 49.62907791137695 39.114742279052734 41.937965393066406
C 50.24964904785156 40.71687316894531 40.57586669921875
H 50.25278854370117 40.15165710449219 39.64972686767578
C 50.505889892578125 42.03139877319336 40.79779815673828
N 50.499481201171875 42.297969818115234 42.146400451660156
C 50.92558288574219 47.19062805175781 50.15570831298828
C 50.27925109863281 45.972320556640625 49.857460021972656
H 49.627689361572266 45.482261657714844 50.57640838623047
C 50.377685546875 45.349483489990234 48.601951599121094
H 49.818328857421875 44.463958740234375 48.311187744140625
C 51.08625411987305 45.91915512084961 47.57682800292969
C 51.77556610107422 47.61823272705078 49.14112091064453
H 52.41290283203125 48.46641540527344 49.377685546875
C 51.774635314941406 47.09962844848633 47.85637664794922
H 52.48326110839844 47.528995513916016 47.15276336669922
N 51.08503341674805 47.736488342285156 51.45648193359375
H 52.0258674621582 47.87553024291992 51.79350280761719
C 50.091400146484375 48.070770263671875 52.32459259033203
O 48.909210205078125 47.92634582519531 52.02490997314453
C 50.504661560058594 48.490753173828125 53.71809387207031
C 49.51435852050781 48.905372619628906 54.648681640625
H 48.52027893066406 49.06220245361328 54.23785400390625
C 49.88526153564453 49.24945068359375 55.97789764404297
C 51.25419998168945 49.377933502197266 56.2667236328125
H 51.54096984863281 49.76127624511719 57.24263000488281
C 52.23285675048828 48.93938064575195 55.39421844482422
H 53.27743911743164 49.01425552368164 55.685447692871094
C 51.8616943359375 48.50056838989258 54.08879852294922
H 52.721778869628906 48.28452682495117 53.46018981933594
C 48.87190628051758 49.52135467529297 57.03497314453125
H 47.856483459472656 49.42810821533203 56.652687072753906
C 49.03902816772461 49.90151596069336 58.340171813964844
H 50.04526138305664 49.88168716430664 58.756134033203125
C 48.06296920776367 50.340641021728516 59.32749938964844
C 46.63734817504883 50.22908020019531 58.842628479003906
H 45.955081939697266 50.550140380859375 59.63249206542969
H 46.28266143798828 49.252681732177734 58.506011962890625
H 46.52052688598633 51.03001022338867 58.10960388183594
C 48.382896423339844 50.88062286376953 60.51904296875
H 49.45099639892578 50.88333511352539 60.731346130371094
C 47.59067916870117 51.45758056640625 61.559532165527344
H 46.52119064331055 51.2701530456543 61.47589874267578
C 48.0580940246582 52.19133377075195 62.52362823486328
H 49.13209915161133 52.266883850097656 62.687103271484375
C 47.20808410644531 52.814361572265625 63.51624298095703
C 45.75983810424805 52.9547233581543 63.27459716796875
H 45.36517333984375 53.86491012573242 63.73095703125
H 45.53060531616211 53.0863151550293 62.21507263183594
H 45.267398834228516 52.06333923339844 63.6688232421875
C 47.78237533569336 53.34721755981445 64.60612487792969
H 48.86532211303711 53.237953186035156 64.57132720947266
C 47.14825439453125 53.93696975708008 65.77405548095703
H 46.061275482177734 53.98543930053711 65.8193588256836
C 47.95249557495117 54.48219680786133 66.74380493164062
H 49.010650634765625 54.27973556518555 66.58491516113281
C 47.468505859375 55.27987289428711 67.83757019042969
H 46.42177963256836 55.56887435913086 67.75531005859375
C 48.092002868652344 55.84975814819336 68.89033508300781
C 49.50535202026367 55.551692962646484 69.2581558227539
H 50.19639205932617 56.36445236206055 69.0250473022461
H 49.531986236572266 55.02739334106445 70.21569061279297
H 49.859710693359375 54.955867767333984 68.41442108154297
C 47.45982360839844 56.8574104309082 69.7841796875
H 46.37872314453125 56.91926193237305 69.66877746582031
C 48.04536819458008 57.67079544067383 70.5791015625
H 49.120365142822266 57.64680099487305 70.75150299072266
C 47.354366302490234 58.632022857666016 71.35680389404297
H 46.3633918762207 58.833072662353516 70.95249938964844
C 47.76875305175781 59.24906539916992 72.45845031738281
C 49.171165466308594 59.06766128540039 73.00141906738281
H 49.27216720581055 59.470401763916016 74.01139831542969
H 49.53013610839844 58.03702926635742 72.96387481689453
H 49.74822235107422 59.66084671020508 72.2889633178711
C 46.91974639892578 60.08577346801758 73.28201293945312
H 47.41263961791992 60.45591354370117 74.17977905273438
C 45.67458724975586 60.594844818115234 72.97714233398438
H 45.18299865722656 60.37630844116211 72.03030395507812
C 45.015174865722656 61.77073287963867 73.66370391845703
C 44.99949264526367 61.90878677368164 75.0044937133789
C 45.395484924316406 60.8875617980957 76.02369689941406
H 44.7269172668457 60.90877914428711 76.8868408203125
H 45.381614685058594 59.9147834777832 75.5277328491211
H 46.4129753112793 61.160091400146484 76.31163024902344
C 44.52457809448242 63.09360885620117 75.75017547607422
H 45.0188102722168 63.295711517333984 76.70272064208984
H 43.49382400512695 62.8588752746582 76.02387237548828
C 44.50251007080078 64.39503479003906 74.89224243164062
H 45.53754425048828 64.71112060546875 74.74644470214844
H 43.99882507324219 65.20787048339844 75.4195556640625
C 43.669281005859375 63.909236907958984 73.6041488647461
H 42.698421478271484 63.51773452758789 73.91499328613281
H 43.521366119384766 64.78958892822266 72.97520446777344
C 44.48456954956055 62.85092544555664 72.7815933227539
C 43.59925842285156 62.43947982788086 71.578125
H 42.75402069091797 61.8455696105957 71.93212127685547
H 43.194766998291016 63.37458419799805 71.18514251708984
H 43.9665641784668 61.99387741088867 70.65130615234375
C 45.56184387207031 63.56283187866211 71.97486877441406
H 46.36834716796875 63.78025436401367 72.6782455444336
H 45.851783752441406 62.9323844909668 71.1316909790039
H 45.120967864990234 64.51385498046875 71.66886901855469
