207
Triad, Carotenoid-Porphyrin-C60
C 39.135616302490234 58.104305267333984 58.10421371459961
C 39.490596771240234 61.03132247924805 52.451480865478516
C 38.303043365478516 59.34291458129883 53.123931884765625
C 37.50974655151367 58.33037185668945 55.03147506713867
C 40.592838287353516 62.87765121459961 53.46857833862305
C 40.67085266113281 61.745914459228516 52.69814682006836
C 38.21745681762695 62.68806838989258 53.6939811706543
C 36.75157928466797 60.47554397583008 54.45289611816406
C 38.05812072753906 59.98283767700195 58.549285888671875
C 39.368858337402344 63.41317367553711 53.967506408691406
C 38.021080017089844 58.05130386352539 57.36351013183594
C 42.38587951660156 62.87726974487305 56.58698654174805
C 41.74291229248047 62.97328567504883 54.26499557495117
C 41.55524826049805 61.85017776489258 58.66380310058594
C 39.18550109863281 62.08284378051758 58.80995559692383
C 40.3549690246582 61.377620697021484 59.20460510253906
C 40.42226791381836 63.90095901489258 56.064754486083984
C 37.41086196899414 62.79813003540039 54.82805252075195
C 36.63603210449219 61.6330451965332 55.2509765625
C 37.31060028076172 62.03830337524414 57.5272331237793
C 42.02163314819336 57.664119720458984 54.312198638916016
C 42.59341049194336 58.99909591674805 54.06211853027344
C 40.66843795776367 57.76566696166992 53.586429595947266
C 40.666683197021484 58.95505905151367 52.838226318359375
C 41.45982360839844 59.47758102416992 58.702880859375
C 43.23117446899414 59.7552375793457 55.0579719543457
C 38.092105865478516 57.56466293334961 56.033756256103516
C 43.01937484741211 61.640438079833984 56.30790328979492
C 42.46177673339844 61.82709884643555 54.00947570800781
C 42.21714782714844 60.61789321899414 58.29741668701172
C 39.41868591308594 57.47047805786133 54.228843688964844
C 40.40185546875 63.56930923461914 57.43914031982422
C 39.15256881713867 63.21291732788086 57.97629928588867
C 36.636844635009766 61.25517654418945 56.53035354614258
C 38.016414642333984 63.6007194519043 55.81451416015625
C 41.86621856689453 57.18711471557617 55.814842224121094
C 42.33416748046875 58.241573333740234 56.79450607299805
C 40.43961715698242 57.073612213134766 56.37907028198242
C 41.51131820678711 58.29145431518555 57.92779541015625
C 38.043216705322266 61.39395523071289 58.51694107055664
C 41.83884048461914 59.6410026550293 53.134010314941406
C 39.318359375 57.16849899291992 55.54607009887695
C 40.340484619140625 57.650753021240234 57.59805679321289
C 38.2703857421875 58.24434280395508 53.903076171875
C 40.29243469238281 59.977230072021484 59.222774505615234
C 43.03399658203125 59.3723258972168 56.417415618896484
C 43.131900787353516 61.1466178894043 55.0358772277832
C 39.48412322998047 59.66484451293945 52.498207092285156
C 41.83829116821289 61.06223678588867 53.029266357421875
C 37.9556770324707 63.21793746948242 57.15818786621094
C 42.97800827026367 60.530887603759766 57.14295196533203
C 39.09972381591797 59.28828811645508 58.94834899902344
C 38.26512145996094 61.52969741821289 52.84915542602539
C 37.46141815185547 60.42885208129883 53.25048065185547
C 36.722293853759766 59.40658950805664 55.319557189941406
C 37.357303619384766 59.25458908081055 57.59307861328125
C 41.61316680908203 63.47696304321289 55.569759368896484
C 41.5986442565918 62.92404556274414 57.766300201416016
C 36.59550476074219 59.857967376708984 56.59885025024414
C 39.291038513183594 63.87614822387695 55.284423828125
C 42.80976486206055 56.50021743774414 53.7504997253418
N 43.18919372558594 55.58621597290039 54.58378982543945
C 42.695274353027344 55.9113883972168 55.917144775390625
H 43.593666076660156 55.91414260864258 56.53966522216797
H 42.068721771240234 55.08637619018555 56.265628814697266
C 43.92978286743164 56.16788101196289 49.577919006347656
C 44.758609771728516 56.81728744506836 50.54142761230469
H 45.634246826171875 57.331912994384766 50.15414047241211
C 44.38438034057617 56.90999984741211 51.887054443359375
H 44.90200424194336 57.43635177612305 52.68491744995117
C 43.205753326416016 56.34518814086914 52.31651306152344
C 42.82478713989258 55.5288200378418 50.06964111328125
H 42.200626373291016 54.96583938598633 49.380401611328125
C 42.4771614074707 55.5931510925293 51.40736389160156
H 41.62592315673828 55.00497055053711 51.740543365478516
C 44.30377197265625 56.216487884521484 48.12580871582031
C 45.488224029541016 56.9277458190918 47.70431137084961
C 45.87630081176758 58.23281478881836 47.95641326904297
H 45.30070495605469 58.931636810302734 48.55438232421875
C 47.21354293823242 58.36751174926758 47.40887451171875
H 47.832889556884766 59.25380325317383 47.49903869628906
C 47.4581413269043 57.284549713134766 46.679840087890625
N 46.507591247558594 56.368534088134766 46.96856689453125
H 46.596832275390625 55.38784408569336 46.73964309692383
C 48.582523345947266 56.827396392822266 45.86924362182617
H 49.24509048461914 57.665767669677734 45.659324645996094
C 48.81289291381836 55.63743209838867 45.239418029785156
C 49.93456268310547 54.88985824584961 45.486000061035156
H 50.80465316772461 55.178768157958984 46.06626892089844
C 49.73845672607422 53.68648147583008 44.88390350341797
H 50.351966857910156 52.79249954223633 44.92421340942383
C 48.520416259765625 53.759822845458984 44.087833404541016
N 47.92729949951172 54.94857406616211 44.47014236450195
C 47.999610900878906 52.65059280395508 43.263099670410156
C 46.6507453918457 52.32545852661133 43.28932189941406
C 45.82060241699219 51.855648040771484 42.2238883972168
H 46.13573455810547 51.50355911254883 41.24718475341797
C 44.47456359863281 52.13241958618164 42.57731246948242
H 43.62568664550781 52.02261734008789 41.91054916381836
C 44.40842056274414 52.74879837036133 43.834354400634766
N 45.74496078491211 52.83061599731445 44.146827697753906
H 45.97846603393555 53.403018951416016 44.94679641723633
C 43.314640045166016 53.308841705322266 44.41653823852539
H 42.422183990478516 53.09402084350586 43.83062744140625
C 43.10564041137695 54.159183502197266 45.60093307495117
C 41.92374801635742 54.815120697021484 46.04169464111328
H 40.9351921081543 54.75657272338867 45.598350524902344
C 42.28987503051758 55.69026565551758 46.991703033447266
H 41.566925048828125 56.41855239868164 47.34408187866211
C 43.5877571105957 55.472537994384766 47.2423210144043
N 44.07905960083008 54.6193962097168 46.386295318603516
C 50.7520637512207 50.46213150024414 40.73048782348633
C 49.51354217529297 49.9749870300293 40.941654205322266
H 49.20288848876953 49.036861419677734 40.48890686035156
C 48.59115982055664 50.76149368286133 41.74924850463867
H 47.69847869873047 50.24678421020508 42.09531784057617
C 48.95901107788086 51.944942474365234 42.349422454833984
C 51.19546890258789 51.631160736083984 41.343711853027344
H 52.1102180480957 52.06187057495117 40.944602966308594
C 50.271724700927734 52.39291763305664 42.109920501708984
H 50.659725189208984 53.32697677612305 42.508121490478516
N 51.58696746826172 49.661128997802734 39.89265441894531
H 51.022193908691406 49.13859176635742 39.23992156982422
C 52.91051483154297 49.34767532348633 40.17692565917969
O 53.50712966918945 49.86502456665039 41.095664978027344
C 53.58686828613281 48.36745834350586 39.298194885253906
C 54.493370056152344 47.4680061340332 39.862213134765625
H 54.72776794433594 47.5001335144043 40.923152923583984
C 55.109352111816406 46.46938705444336 39.10764694213867
C 54.94363784790039 46.37886428833008 37.69084930419922
H 55.472625732421875 45.66641616821289 37.06303405761719
C 54.114013671875 47.35759353637695 37.13134765625
H 54.008949279785156 47.4000358581543 36.05026626586914
C 53.43626403808594 48.25923538208008 37.91022491455078
H 52.822994232177734 49.02617263793945 37.444091796875
C 55.771026611328125 45.37569808959961 39.86885070800781
H 55.68383026123047 45.602413177490234 40.930416107177734
C 56.317359924316406 44.199344635009766 39.4871711730957
H 56.37062072753906 43.88837814331055 38.44487380981445
C 56.86805725097656 43.12973403930664 40.29961013793945
C 57.86945724487305 42.1434440612793 39.659454345703125
H 57.48775863647461 41.35707473754883 39.00494384765625
H 58.51498031616211 41.66909408569336 40.401588439941406
H 58.55723190307617 42.66203689575195 38.98827362060547
C 56.44063949584961 42.93416213989258 41.59349060058594
H 55.651546478271484 43.62741470336914 41.880977630615234
C 56.66199493408203 41.925411224365234 42.58293151855469
H 57.34977340698242 41.17097854614258 42.203834533691406
C 55.839210510253906 41.66072463989258 43.607398986816406
H 55.06950378417969 42.39486312866211 43.840885162353516
C 55.94938659667969 40.46416091918945 44.50794219970703
C 55.131072998046875 40.60573959350586 45.72592544555664
H 54.16854476928711 40.0947151184082 45.656211853027344
H 55.54751968383789 40.18759536743164 46.64472579956055
H 54.97813415527344 41.65590286254883 45.98326110839844
C 56.602787017822266 39.3183479309082 44.279144287109375
H 57.074615478515625 39.295101165771484 43.29793930053711
C 56.79240417480469 38.17458724975586 45.11510467529297
H 56.24744415283203 37.99386215209961 46.040462493896484
C 57.492122650146484 37.09709548950195 44.72599792480469
H 57.99801254272461 37.27486801147461 43.77815628051758
C 57.618953704833984 35.888797760009766 45.49367141723633
H 57.0581169128418 35.92099380493164 46.42659378051758
C 58.2580680847168 34.76102828979492 45.22555923461914
C 58.93195724487305 34.56571578979492 43.91252517700195
H 59.61130142211914 35.3898811340332 43.68511962890625
H 59.5341911315918 33.6547966003418 43.91609191894531
H 58.19453048706055 34.448604583740234 43.11568069458008
C 58.205448150634766 33.54268264770508 46.10090637207031
H 58.47947311401367 32.62022018432617 45.591102600097656
C 57.8824348449707 33.4415397644043 47.38144302368164
H 57.701663970947266 34.34646987915039 47.95966339111328
C 57.70248031616211 32.15266036987305 48.062095642089844
H 57.620121002197266 31.22705078125 47.49430847167969
C 57.447505950927734 31.873180389404297 49.373043060302734
C 57.455440521240234 32.891014099121094 50.474727630615234
H 58.00857162475586 32.559814453125 51.35609817504883
H 58.00432205200195 33.773319244384766 50.13896942138672
H 56.43764114379883 33.07588195800781 50.824546813964844
C 57.315372467041016 30.506927490234375 49.887420654296875
H 56.68608856201172 30.444873809814453 50.77402877807617
C 58.01046371459961 29.47240447998047 49.446414947509766
H 58.71955490112305 29.61279296875 48.631919860839844
C 57.9245491027832 28.10330581665039 49.91746139526367
C 58.6729621887207 27.643402099609375 50.982513427734375
C 59.737545013427734 28.39559555053711 51.69695281982422
H 60.7013053894043 27.882530212402344 51.71672439575195
H 59.8239860534668 29.353530883789062 51.17988586425781
H 59.46451187133789 28.61077117919922 52.732139587402344
C 58.647525787353516 26.247417449951172 51.47124099731445
H 57.88972854614258 26.170429229736328 52.25372314453125
H 59.59849166870117 25.98641586303711 51.94029235839844
C 58.2977180480957 25.311447143554688 50.29240036010742
H 58.32046127319336 24.241008758544922 50.50713348388672
H 58.98019790649414 25.44062042236328 49.449790954589844
C 56.99320983886719 25.75259017944336 49.623779296875
H 56.69656753540039 25.038639068603516 48.85258483886719
H 56.235355377197266 25.670120239257812 50.40564727783203
C 57.071102142333984 27.109233856201172 49.05509948730469
C 57.563961029052734 27.050987243652344 47.670021057128906
H 58.45585250854492 26.452457427978516 47.473167419433594
H 56.76821517944336 26.571197509765625 47.09638977050781
H 57.67204666137695 28.038326263427734 47.216209411621094
C 55.5792236328125 27.478515625 48.82411193847656
H 54.948692321777344 26.826271057128906 48.21627426147461
H 55.081932067871094 27.545486450195312 49.79399490356445
H 55.4456672668457 28.447063446044922 48.33775329589844
