207
Triad, Carotenoid-Porphyrin-C60
C 37.00486755371094 35.27464294433594 47.52181625366211
C 35.86438751220703 39.75061798095703 42.9383659362793
C 37.59579086303711 38.33488464355469 43.03899002075195
C 38.0845947265625 36.23823928833008 44.23503494262695
C 33.622161865234375 40.042659759521484 43.9273796081543
C 34.94902038574219 40.567100524902344 43.700992584228516
C 34.1898078918457 38.130916595458984 42.47111129760742
C 36.28559112548828 36.306697845458984 42.64866256713867
C 35.38163375854492 34.26199722290039 46.421329498291016
C 33.25568389892578 38.900394439697266 43.225826263427734
C 37.46694564819336 35.033695220947266 46.26706314086914
C 32.4837646484375 39.09685516357422 47.185787200927734
C 33.10540771484375 40.32846450805664 45.197330474853516
C 33.15240478515625 37.040592193603516 48.209529876708984
C 33.16794204711914 35.14657211303711 46.659175872802734
C 33.54823303222656 35.757118225097656 47.88429641723633
C 32.03029251098633 38.19572830200195 45.17178726196289
C 33.9077262878418 36.773895263671875 42.6023063659668
C 34.96949005126953 35.85486602783203 42.78146743774414
C 33.86738967895508 34.72896194458008 44.5926628112793
C 38.10380172729492 39.92628860473633 46.97090530395508
C 36.775123596191406 40.634708404541016 46.80507278442383
C 38.40251541137695 39.46931838989258 45.55562973022461
C 37.518314361572266 40.1249885559082 44.700740814208984
C 35.206817626953125 36.72892379760742 49.0494270324707
C 35.664859771728516 40.47031784057617 47.61178207397461
C 38.29171371459961 35.9522819519043 45.5974006652832
C 33.56013870239258 39.78628921508789 47.8351936340332
C 34.121273040771484 41.03269577026367 45.78960037231445
C 34.166351318359375 37.62798309326172 48.9261589050293
C 38.7020149230957 38.17937469482422 45.24714279174805
C 31.987009048461914 37.15453338623047 46.09183120727539
C 32.360260009765625 35.87097930908203 45.7612419128418
C 34.927833557128906 34.79034423828125 43.72513961791992
C 32.79995346069336 36.68616485595703 43.47770309448242
C 38.12491226196289 38.791324615478516 48.04072189331055
C 36.75971221923828 38.591575622558594 48.77827072143555
C 38.31660461425781 37.3739128112793 47.542728424072266
C 36.49065017700195 37.210323333740234 48.85933303833008
C 34.09215545654297 34.481109619140625 45.9179801940918
C 36.55953598022461 40.9244384765625 45.42824172973633
C 38.700618743896484 37.12225341796875 46.24269485473633
C 37.380348205566406 36.44578552246094 48.15854263305664
C 38.351165771484375 37.610687255859375 44.02578353881836
C 34.81527328491211 35.54888916015625 48.41389083862305
C 35.678810119628906 39.461849212646484 48.64267349243164
C 34.38390350341797 40.66720962524414 47.15288162231445
C 37.145103454589844 39.59743881225586 43.44840621948242
C 35.250179290771484 41.06684875488281 44.936519622802734
C 32.790592193603516 35.658546447753906 44.48146438598633
C 34.376556396484375 39.030921936035156 48.68801498413086
C 35.71788024902344 34.752220153808594 47.69834518432617
C 35.52406692504883 38.60840606689453 42.33699417114258
C 36.563926696777344 37.68185806274414 42.38808059692383
C 36.99827575683594 35.60327911376953 43.59273147583008
C 36.44439697265625 34.361534118652344 45.5919303894043
C 32.29246139526367 39.4013786315918 45.83286666870117
C 32.369598388671875 37.70075988769531 47.32709884643555
C 36.19834518432617 34.69697952270508 44.25130844116211
C 32.398704528808594 38.00477600097656 43.85539627075195
C 39.16770553588867 40.86650466918945 47.49483108520508
N 39.75544357299805 40.49265670776367 48.53023147583008
C 39.21747970581055 39.162925720214844 49.083187103271484
H 38.87506103515625 39.25338363647461 50.11721420288086
H 40.026668548583984 38.441078186035156 48.94606399536133
C 40.393829345703125 44.76318359375 46.017642974853516
C 39.7929573059082 44.54701614379883 47.27144241333008
H 39.73537063598633 45.34329605102539 48.00913619995117
C 39.33159255981445 43.2881965637207 47.694515228271484
H 38.84520721435547 43.183990478515625 48.6610221862793
C 39.525142669677734 42.17353439331055 46.90853500366211
C 40.55259704589844 43.62931823730469 45.26956558227539
H 41.11964416503906 43.652801513671875 44.34248733520508
C 40.18850326538086 42.35384750366211 45.69581985473633
H 40.49874496459961 41.51755905151367 45.074581146240234
C 40.918968200683594 46.11029052734375 45.49906539916992
C 40.91734313964844 47.26759338378906 46.4069938659668
C 39.86503601074219 47.87400817871094 46.9970817565918
H 38.86746597290039 47.4764404296875 47.15208053588867
C 40.312347412109375 49.062416076660156 47.631771087646484
H 39.615821838378906 49.690635681152344 48.17714309692383
C 41.5978889465332 49.225982666015625 47.22987747192383
N 41.961666107177734 48.11937713623047 46.479061126708984
H 42.92656326293945 47.98408508300781 46.20926284790039
C 42.57300567626953 50.35368347167969 47.559452056884766
H 42.26519012451172 50.970367431640625 48.402584075927734
C 43.874916076660156 50.53227996826172 47.143131256103516
C 44.694339752197266 51.532073974609375 47.66245651245117
H 44.4735221862793 52.310638427734375 48.38515853881836
C 45.80215835571289 51.38865661621094 46.91774368286133
H 46.67415237426758 51.99201965332031 47.14753341674805
C 45.765228271484375 50.16499328613281 46.16343307495117
N 44.511863708496094 49.76275634765625 46.21938705444336
C 46.82379913330078 49.5733642578125 45.27790451049805
C 46.56111526489258 48.864166259765625 44.1307487487793
C 47.222476959228516 48.92768859863281 42.89352035522461
H 48.0523796081543 49.593231201171875 42.680118560791016
C 46.52368927001953 48.11079406738281 42.000362396240234
H 46.777931213378906 47.95453643798828 40.95720672607422
C 45.37299728393555 47.55146789550781 42.631351470947266
N 45.48021697998047 48.01396179199219 43.9185905456543
H 44.879356384277344 47.704856872558594 44.67061996459961
C 44.42810821533203 46.81880187988281 42.09600830078125
H 44.495147705078125 46.60015106201172 41.03129196166992
C 43.19560241699219 46.426666259765625 42.743038177490234
C 42.018898010253906 45.92694854736328 42.200660705566406
H 41.93437576293945 45.740509033203125 41.13514709472656
C 41.025760650634766 45.734130859375 43.1315803527832
H 40.06947708129883 45.34190368652344 42.801578521728516
C 41.6165771484375 46.105224609375 44.29673385620117
N 42.84519958496094 46.52252197265625 44.06241226196289
C 50.84076690673828 49.16001892089844 47.079647064208984
C 50.571598052978516 48.78202819824219 45.79780197143555
H 51.40403747558594 48.320762634277344 45.272586822509766
C 49.30406951904297 48.88578796386719 45.15193557739258
H 49.179386138916016 48.50831604003906 44.14023208618164
C 48.21651077270508 49.35572052001953 45.89558029174805
C 49.72811508178711 49.56171417236328 47.83072280883789
H 49.85065841674805 49.78423309326172 48.88762283325195
C 48.44126510620117 49.68400573730469 47.259952545166016
H 47.608734130859375 50.072227478027344 47.84111404418945
N 52.03303909301758 48.722259521484375 47.71090316772461
H 52.07530212402344 47.72346496582031 47.847652435302734
C 53.155853271484375 49.45013427734375 47.89773178100586
O 53.16786575317383 50.64710998535156 47.827701568603516
C 54.41276550292969 48.667724609375 48.17475509643555
C 55.58769226074219 49.285255432128906 48.56266403198242
H 55.501277923583984 50.33256530761719 48.84060287475586
C 56.78184127807617 48.60209655761719 48.46718978881836
C 56.8348503112793 47.279930114746094 47.98403549194336
H 57.7703971862793 46.726478576660156 47.98710250854492
C 55.6439208984375 46.68016815185547 47.546382904052734
H 55.7508544921875 45.7033805847168 47.081607818603516
C 54.47137451171875 47.39036560058594 47.59060287475586
H 53.671478271484375 46.98187255859375 46.97834396362305
C 58.03367233276367 49.394439697265625 48.75156784057617
H 57.84747314453125 50.37059020996094 49.19694900512695
C 59.33058166503906 48.973388671875 48.77824783325195
H 59.56201171875 48.034080505371094 48.278194427490234
C 60.56102752685547 49.76079559326172 49.08369827270508
C 61.61729431152344 49.01695251464844 49.75569534301758
H 61.60481643676758 49.29194641113281 50.81242752075195
H 62.5827522277832 49.169776916503906 49.268863677978516
H 61.50508117675781 47.93651580810547 49.643733978271484
C 60.613441467285156 51.12738037109375 48.93184280395508
H 59.77000045776367 51.60785675048828 48.43820571899414
C 61.64946365356445 52.05079650878906 49.42141342163086
H 62.329673767089844 51.615814208984375 50.15217971801758
C 61.73043441772461 53.33045959472656 49.04294967651367
H 61.050323486328125 53.76158905029297 48.3098030090332
C 62.749454498291016 54.26594543457031 49.47829818725586
C 63.82643508911133 53.789642333984375 50.38669204711914
H 63.44459915161133 53.469635009765625 51.35841751098633
H 64.30955505371094 52.95789337158203 49.86972427368164
H 64.62991333007812 54.51799011230469 50.51469802856445
C 62.45130920410156 55.58656311035156 49.4644889831543
H 61.592674255371094 55.83972930908203 48.84434127807617
C 62.975006103515625 56.645713806152344 50.29169845581055
H 63.599308013916016 56.24225616455078 51.08755874633789
C 62.815147399902344 57.95655059814453 50.04875564575195
H 62.123878479003906 58.219482421875 49.24942398071289
C 63.448570251464844 59.060951232910156 50.86838912963867
H 63.96112823486328 58.76976013183594 51.7840461730957
C 63.30528259277344 60.4033203125 50.6868782043457
C 62.442588806152344 60.966209411621094 49.62495040893555
H 62.997520446777344 61.759239196777344 49.11935806274414
H 62.257720947265625 60.19572448730469 48.8735237121582
H 61.53112030029297 61.42717742919922 50.01120376586914
C 63.74467849731445 61.371551513671875 51.68240737915039
H 63.271305084228516 62.347373962402344 51.584415435791016
C 64.4891357421875 61.163330078125 52.848880767822266
H 64.89523315429688 60.15602111816406 52.92848587036133
C 64.57792663574219 62.17475128173828 53.88022232055664
H 64.36500549316406 63.173744201660156 53.50259780883789
C 64.65324401855469 61.90068054199219 55.2162971496582
C 64.97093963623047 60.52484893798828 55.74064254760742
H 64.48023223876953 59.734535217285156 55.16873550415039
H 66.01277923583984 60.20625305175781 55.81509017944336
H 64.37663269042969 60.22698211669922 56.60698318481445
C 64.42758178710938 62.959747314453125 56.20505905151367
H 64.04283905029297 63.86602020263672 55.73970413208008
C 64.35674285888672 62.9742431640625 57.5473518371582
H 64.5715560913086 62.11112976074219 58.17570114135742
C 64.01026916503906 64.22693634033203 58.32927322387695
C 64.8450927734375 65.31043243408203 58.316768646240234
C 66.23648071289062 65.314208984375 57.67440414428711
H 66.73641204833984 64.34642791748047 57.751461029052734
H 66.15196990966797 65.53269958496094 56.60782241821289
H 66.86724090576172 66.02763366699219 58.20884323120117
C 64.58480072021484 66.55587768554688 59.08621597290039
H 64.88919830322266 67.3906478881836 58.451419830322266
H 65.23136901855469 66.67134857177734 59.958614349365234
C 63.14611053466797 66.8626937866211 59.46915054321289
H 62.68440246582031 67.31171417236328 58.5872917175293
H 63.16759490966797 67.51221466064453 60.34672164916992
C 62.469566345214844 65.49567413330078 59.85287857055664
H 62.937904357910156 65.1049575805664 60.758670806884766
H 61.40974426269531 65.513916015625 60.11539077758789
C 62.582393646240234 64.3544921875 58.83060073852539
C 62.00928497314453 63.08674621582031 59.50130844116211
H 62.19456100463867 62.154327392578125 58.9639778137207
H 62.419517517089844 62.95771789550781 60.505062103271484
H 60.936458587646484 63.17638397216797 59.684261322021484
C 61.662784576416016 64.65030670166016 57.705142974853516
H 61.7147331237793 63.89726257324219 56.91603469848633
H 60.66209411621094 64.9524917602539 58.0210075378418
H 62.05895233154297 65.59397888183594 57.3243522644043
