207
Triad, Carotenoid-Porphyrin-C60
C 55.919944763183594 51.879249572753906 63.9005012512207
C 61.349308013916016 49.7276725769043 60.82847595214844
C 60.05980682373047 51.64897537231445 60.55190658569336
C 58.52920913696289 53.04092788696289 61.63542556762695
C 61.575355529785156 48.05390930175781 62.60808181762695
C 61.222713470458984 48.397090911865234 61.26535415649414
C 62.1247673034668 50.40658187866211 62.99716567993164
C 60.753662109375 52.748714447021484 62.528751373291016
C 57.47846984863281 52.334564208984375 65.47622680664062
C 62.07265853881836 49.091556549072266 63.44072723388672
C 56.81398010253906 52.82171630859375 63.332130432128906
C 58.90620422363281 46.9176139831543 64.81321716308594
C 60.727779388427734 47.06692123413086 63.11711120605469
C 57.35012435913086 48.2706413269043 65.93632507324219
C 58.34432601928711 50.42776870727539 66.59449768066406
C 57.2080078125 49.647239685058594 66.29280853271484
C 60.7612190246582 48.12030792236328 65.3265609741211
C 61.87748336791992 51.23772430419922 64.07974243164062
C 61.15248489379883 52.37546157836914 63.819740295410156
C 59.83803939819336 52.008750915527344 65.87678527832031
C 56.768672943115234 49.0385627746582 60.06549072265625
C 57.7127571105957 47.90472412109375 60.52873229980469
C 57.86955261230469 50.12950897216797 59.805397033691406
C 59.10639190673828 49.484134674072266 59.819278717041016
C 55.72328186035156 49.23386001586914 64.71593475341797
C 57.398582458496094 47.12009048461914 61.706748962402344
C 57.174991607666016 52.779335021972656 61.953067779541016
C 58.004676818847656 46.64628601074219 63.78142166137695
C 59.73727035522461 46.88059616088867 62.132572174072266
C 56.39726638793945 48.05498504638672 64.93358612060547
C 57.686561584472656 51.453224182128906 60.20453643798828
C 59.71818542480469 48.49958419799805 66.13018798828125
C 59.59133529663086 49.83224868774414 66.52692413330078
C 60.18760299682617 52.70695495605469 64.73312377929688
C 61.53554916381836 50.35342788696289 65.1455307006836
C 55.59457015991211 49.479270935058594 61.06007766723633
C 55.55569839477539 48.667449951171875 62.3302116394043
C 55.74717712402344 50.88347244262695 61.603763580322266
C 55.37162399291992 49.558841705322266 63.365577697753906
C 58.506195068359375 51.704994201660156 66.23148345947266
C 59.033939361572266 48.14939880371094 60.240821838378906
C 56.67443084716797 51.82379913330078 61.15483474731445
C 55.5252685546875 50.90044403076172 62.97550582885742
C 58.81964111328125 52.219417572021484 60.59128952026367
C 56.198158264160156 50.21608352661133 65.58744812011719
C 56.299808502197266 47.493507385253906 62.55029296875
C 58.42255783081055 46.598026275634766 62.470314025878906
C 60.217933654785156 50.288795471191406 60.12122344970703
C 60.07723617553711 47.62636947631836 60.95795822143555
C 60.463661193847656 50.790348052978516 66.00511169433594
C 56.70085906982422 47.215301513671875 63.84902572631836
C 56.28797149658203 51.5640983581543 65.20204162597656
C 61.841251373291016 50.69952392578125 61.69715118408203
C 61.029109954833984 51.849571228027344 61.53117370605469
C 59.503353118896484 53.3482780456543 62.63056564331055
C 57.832088470458984 53.05160903930664 64.30072021484375
C 60.30571746826172 47.13860321044922 64.4532699584961
C 58.59425735473633 47.73176956176758 65.8548583984375
C 59.17601776123047 53.25746536254883 63.95539855957031
C 61.6733283996582 49.06635284423828 64.85337829589844
C 55.99357986450195 48.75481414794922 58.82691955566406
N 54.76753234863281 48.8538818359375 58.86042022705078
C 54.31283187866211 49.21494674682617 60.23125457763672
H 53.546443939208984 48.496673583984375 60.533546447753906
H 53.838233947753906 50.19584655761719 60.14616775512695
C 57.89108657836914 47.143592834472656 55.34680938720703
C 57.24000549316406 46.3359260559082 56.2885856628418
H 57.19892501831055 45.267765045166016 56.09129333496094
C 56.627925872802734 46.849769592285156 57.4707145690918
H 56.11053466796875 46.151187896728516 58.123294830322266
C 56.71574020385742 48.21611022949219 57.72479248046875
C 57.817073822021484 48.50804901123047 55.55329513549805
H 58.062313079833984 49.169368743896484 54.72620391845703
C 57.26539611816406 49.07476806640625 56.70646286010742
H 57.145103454589844 50.149681091308594 56.814430236816406
C 58.403350830078125 46.51790237426758 54.131683349609375
C 58.27339553833008 45.07114028930664 53.9155387878418
C 58.806541442871094 44.001365661621094 54.54884719848633
H 59.41618347167969 43.95990753173828 55.4454231262207
C 58.317142486572266 42.79588317871094 53.92037582397461
H 58.5325813293457 41.770973205566406 54.20387268066406
C 57.600067138671875 43.17931365966797 52.79082107543945
N 57.413211822509766 44.55874252319336 52.954593658447266
H 56.85328674316406 45.18076705932617 52.38741683959961
C 56.92899703979492 42.454288482666016 51.728275299072266
H 56.87388229370117 41.36775588989258 51.776512145996094
C 56.058815002441406 42.912879943847656 50.75664520263672
C 54.709449768066406 42.59593963623047 50.653873443603516
H 54.217044830322266 42.0985107421875 51.48292541503906
C 54.23427963256836 43.247859954833984 49.545989990234375
H 53.192665100097656 43.33790588378906 49.255897521972656
C 55.409420013427734 43.94729995727539 48.988677978515625
N 56.494468688964844 43.74243927001953 49.74228286743164
C 55.41999053955078 44.99444580078125 47.905155181884766
C 56.421600341796875 45.9581184387207 47.83771514892578
C 57.11151123046875 46.54335021972656 46.71240997314453
H 56.96110153198242 46.23837661743164 45.68207550048828
C 58.04133605957031 47.44478225708008 47.16470718383789
H 58.64601135253906 48.087589263916016 46.53352737426758
C 58.09833526611328 47.36516189575195 48.636619567871094
N 57.02713394165039 46.497615814208984 48.89244842529297
H 56.69125747680664 46.382198333740234 49.83901596069336
C 58.90119934082031 48.01082992553711 49.57857894897461
H 59.632164001464844 48.63193130493164 49.0629768371582
C 59.0312614440918 47.957733154296875 51.00255584716797
C 59.972679138183594 48.61747741699219 51.878326416015625
H 60.603553771972656 49.48714828491211 51.72698211669922
C 59.81111145019531 48.082401275634766 53.1169548034668
H 60.30248260498047 48.317447662353516 54.055320739746094
C 58.802467346191406 47.1689453125 53.03085708618164
N 58.31104278564453 47.1318473815918 51.78327941894531
C 52.167762756347656 45.10819625854492 44.90970230102539
C 53.01990509033203 46.187015533447266 45.0303955078125
H 52.829463958740234 47.03775405883789 44.38113021850586
C 54.115516662597656 46.078163146972656 45.90589904785156
H 54.7431640625 46.96057891845703 46.000633239746094
C 54.23384094238281 45.00941467285156 46.831111907958984
C 52.4276237487793 43.97300720214844 45.74198532104492
H 51.84861373901367 43.05406951904297 45.698726654052734
C 53.42154312133789 43.902305603027344 46.69864273071289
H 53.67804718017578 43.006351470947266 47.25813674926758
N 51.1405029296875 45.05314254760742 43.86175537109375
H 51.203712463378906 44.204586029052734 43.31950759887695
C 50.11264419555664 45.930118560791016 43.5982551574707
O 50.042694091796875 46.98678207397461 44.185089111328125
C 49.07435989379883 45.474056243896484 42.651390075683594
C 47.96876907348633 46.27088165283203 42.243186950683594
H 48.03377914428711 47.280906677246094 42.63966369628906
C 46.976566314697266 45.77389144897461 41.34835433959961
C 47.08888626098633 44.52263259887695 40.82421875
H 46.41814041137695 44.1231803894043 40.067840576171875
C 48.22883224487305 43.72438049316406 41.13789749145508
H 48.306053161621094 42.69956588745117 40.78383255004883
C 49.16322326660156 44.13621520996094 42.071189880371094
H 50.00043869018555 43.4503288269043 42.172183990478516
C 45.844200134277344 46.62775802612305 41.176265716552734
H 45.8798828125 47.6099853515625 41.645179748535156
C 44.77189254760742 46.289222717285156 40.482669830322266
H 44.775325775146484 45.317989349365234 39.990108489990234
C 43.58539962768555 47.07376480102539 40.3912353515625
C 43.14338684082031 47.892677307128906 41.66230010986328
H 43.1652946472168 48.943458557128906 41.36591720581055
H 43.7921028137207 47.701454162597656 42.51966094970703
H 42.1266975402832 47.6238899230957 41.956512451171875
C 42.745216369628906 47.05604934692383 39.30875778198242
H 43.12013626098633 46.60570526123047 38.39085006713867
C 41.35731506347656 47.625404357910156 39.26078796386719
H 40.947601318359375 48.0716552734375 40.165733337402344
C 40.57521057128906 47.570125579833984 38.17619323730469
H 40.87042236328125 47.13676834106445 37.221744537353516
C 39.2291374206543 48.106746673583984 38.101898193359375
C 38.38787078857422 48.12139892578125 39.3614387512207
H 37.616947174072266 47.35173034667969 39.285587310791016
H 39.00515365600586 48.040340423583984 40.258575439453125
H 37.914798736572266 49.09992218017578 39.46708297729492
C 38.714664459228516 48.65806579589844 36.95429229736328
H 39.39069747924805 48.67144775390625 36.10063934326172
C 37.33300018310547 49.08747482299805 36.74810028076172
H 36.54214859008789 48.544288635253906 37.26329803466797
C 36.97429275512695 50.01682662963867 35.80432891845703
H 37.75343704223633 50.572059631347656 35.28416442871094
C 35.61301803588867 50.25364685058594 35.29814147949219
H 34.799522399902344 49.84688186645508 35.89704895019531
C 35.20103073120117 50.86531448364258 34.147918701171875
C 36.24103546142578 51.31816864013672 33.25420379638672
H 35.959617614746094 51.476863861083984 32.21109390258789
H 36.65498352050781 52.258758544921875 33.623531341552734
H 37.048316955566406 50.582942962646484 33.239803314208984
C 33.81296920776367 50.97023010253906 33.706642150878906
H 33.64082717895508 51.414459228515625 32.727378845214844
C 32.73707580566406 50.68614959716797 34.46746826171875
H 32.88578796386719 50.43484878540039 35.51658630371094
C 31.37738800048828 50.87919998168945 33.97247314453125
H 31.193668365478516 51.22862243652344 32.95754623413086
C 30.254058837890625 50.62635803222656 34.68260192871094
C 30.210681915283203 49.981842041015625 36.000728607177734
H 31.04545783996582 49.28889846801758 36.12497329711914
H 30.378782272338867 50.72650909423828 36.781551361083984
H 29.31355857849121 49.38933563232422 36.19193649291992
C 28.968175888061523 50.94279098510742 34.142765045166016
H 28.180313110351562 50.23420715332031 34.39396286010742
C 28.757732391357422 52.013214111328125 33.3224983215332
H 29.630826950073242 52.66390609741211 33.337615966796875
C 27.618839263916016 52.58550262451172 32.59845733642578
C 26.523685455322266 51.85930633544922 32.214839935302734
C 26.34225082397461 50.34052276611328 32.421905517578125
H 25.429248809814453 49.927207946777344 31.988243103027344
H 27.246051788330078 49.83740234375 32.071937561035156
H 26.28057098388672 50.15342330932617 33.49598693847656
C 25.35906219482422 52.300411224365234 31.343364715576172
H 24.398698806762695 51.937217712402344 31.715192794799805
H 25.570138931274414 51.8419075012207 30.375022888183594
C 25.248159408569336 53.87534713745117 31.22770881652832
H 24.801816940307617 54.36166000366211 32.097618103027344
H 24.610015869140625 54.16140365600586 30.389015197753906
C 26.713640213012695 54.352088928222656 31.00462532043457
H 27.163267135620117 53.76280975341797 30.202720642089844
H 26.83930015563965 55.41518783569336 30.789011001586914
C 27.661266326904297 54.06594467163086 32.20600891113281
C 29.01449966430664 54.607566833496094 31.85987663269043
H 29.423473358154297 54.14570999145508 30.958826065063477
H 28.97200584411621 55.62858581542969 31.474943161010742
H 29.655179977416992 54.71569061279297 32.73754119873047
C 27.207237243652344 54.92643737792969 33.318119049072266
H 26.213441848754883 54.5693359375 33.59616470336914
H 27.898841857910156 54.7962532043457 34.15310287475586
H 27.223726272583008 55.99105453491211 33.07568359375
