207
Triad, Carotenoid-Porphyrin-C60
C 46.38439178466797 41.59431457519531 40.43843460083008
C 50.67074966430664 37.64579772949219 43.14790344238281
C 48.52056884765625 37.954837799072266 43.59975814819336
C 46.43302536010742 38.67797088623047 42.57997131347656
C 52.2640495300293 38.11420822143555 41.36117935180664
C 51.88753890991211 38.295570373535156 42.68275833129883
C 50.44607925415039 36.54655838012695 41.012813568115234
C 47.716575622558594 36.88312911987305 41.536827087402344
C 46.61574935913086 40.044681549072266 38.8701057434082
C 51.570552825927734 37.25288391113281 40.576290130615234
C 45.892086029052734 40.369476318359375 40.945919036865234
C 52.20040512084961 40.98532485961914 39.220096588134766
C 52.7972526550293 39.308387756347656 40.876976013183594
C 50.219093322753906 41.83000946044922 38.16626739501953
C 48.65388870239258 40.06147003173828 37.47868728637695
C 48.8985710144043 41.40415573120117 37.83076858520508
C 51.809837341308594 38.87199401855469 38.72733688354492
C 49.519046783447266 36.482093811035156 39.99965286254883
C 48.171504974365234 36.66572952270508 40.26784896850586
C 47.911216735839844 38.09157180786133 38.40131378173828
C 49.457237243652344 42.00625991821289 44.079627990722656
C 50.841060638427734 41.71058654785156 43.58436584472656
C 48.935543060302734 40.594505310058594 44.25899887084961
C 50.00595474243164 39.72230911254883 44.209537506103516
C 48.68780517578125 42.89255142211914 39.457862854003906
C 51.366031646728516 42.290645599365234 42.392723083496094
C 46.10884475708008 40.06106948852539 42.28500747680664
C 52.021812438964844 41.92823791503906 40.21097183227539
C 52.65321731567383 40.269290924072266 41.88515853881836
C 50.05531692504883 42.78236770629883 39.16139221191406
C 47.59884262084961 40.1445426940918 43.98002243041992
C 51.01619338989258 39.57561492919922 37.82618713378906
C 49.70767593383789 39.149017333984375 37.529354095458984
C 47.3006706237793 37.40602493286133 39.449100494384766
C 50.060970306396484 37.163795471191406 38.88036346435547
C 48.54319763183594 42.80842971801758 43.16872787475586
C 49.18185806274414 43.15548324584961 41.81686019897461
C 47.26845932006836 42.130332946777344 42.57883834838867
C 48.23394012451172 43.13121032714844 40.769596099853516
C 47.54014587402344 39.38402557373047 38.01899337768555
C 51.1416130065918 40.33422088623047 43.72265625
C 46.777793884277344 40.92496871948242 43.165740966796875
C 47.100425720214844 42.48319625854492 41.243621826171875
C 47.408660888671875 38.81495666503906 43.55419158935547
C 47.98823165893555 42.06653594970703 38.680389404296875
C 50.52553176879883 42.961273193359375 41.502281188964844
C 52.202632904052734 41.56162643432617 41.53158950805664
C 49.80142593383789 38.383907318115234 43.90788269042969
C 52.067665100097656 39.62788391113281 42.965309143066406
C 49.230648040771484 37.93305206298828 38.043460845947266
C 50.969295501708984 42.826393127441406 40.22608947753906
C 46.832828521728516 41.41143035888672 39.11125183105469
C 50.008758544921875 36.807395935058594 42.31917190551758
C 48.6577262878418 36.97822952270508 42.575294494628906
C 46.62073516845703 37.73398971557617 41.534420013427734
C 46.054134368896484 39.407066345214844 39.94215393066406
C 52.55299758911133 39.713008880615234 39.558807373046875
C 51.265892028808594 40.8988037109375 38.201656341552734
C 46.40131759643555 38.10797119140625 40.23257064819336
C 51.31943130493164 37.66865921020508 39.2503547668457
C 49.56842041015625 42.82012939453125 45.300601959228516
N 48.85400390625 43.89231872558594 45.33137130737305
C 48.239402770996094 44.055999755859375 43.98609161376953
H 48.65971374511719 44.97990798950195 43.58065414428711
H 47.160465240478516 44.209449768066406 44.06975555419922
C 52.05599594116211 41.6163330078125 48.71665954589844
C 52.604026794433594 42.36788558959961 47.631324768066406
H 53.62207794189453 42.74686050415039 47.670345306396484
C 51.79425048828125 42.753448486328125 46.482749938964844
H 52.092227935791016 43.52448654174805 45.77685546875
C 50.41506576538086 42.44239807128906 46.46601486206055
C 50.72172927856445 41.17310333251953 48.57777404785156
H 50.410274505615234 40.49066925048828 49.364444732666016
C 49.9173698425293 41.61619186401367 47.51322937011719
H 48.902950286865234 41.23427200317383 47.43161392211914
C 52.81269073486328 41.30946350097656 50.01612854003906
C 54.03841781616211 42.10292434692383 50.2377815246582
C 55.30117416381836 42.11543655395508 49.61713790893555
H 55.53046798706055 41.44427490234375 48.796043395996094
C 56.107696533203125 43.110939025878906 50.13798141479492
H 57.15032958984375 43.32733917236328 49.92988204956055
C 55.349098205566406 43.754859924316406 51.11825942993164
N 54.115962982177734 43.1334228515625 51.12218475341797
H 53.34331130981445 43.39210891723633 51.720699310302734
C 55.64284133911133 44.88205337524414 51.9945068359375
H 56.49950408935547 45.488807678222656 51.7048454284668
C 54.81195831298828 45.40091323852539 52.95879364013672
C 54.472801208496094 46.76611328125 52.938636779785156
H 54.873722076416016 47.52323913574219 52.27286911010742
C 53.42472457885742 46.86427307128906 53.875736236572266
H 52.80176544189453 47.744102478027344 53.99842071533203
C 53.200870513916016 45.53923034667969 54.479637145996094
N 54.05948257446289 44.657405853271484 53.92746353149414
C 52.07563018798828 45.15624237060547 55.40939712524414
C 51.627559661865234 43.8548698425293 55.50791931152344
C 51.213287353515625 43.15839767456055 56.70979309082031
H 51.099876403808594 43.59946823120117 57.69458770751953
C 50.96160125732422 41.8577995300293 56.44162368774414
H 50.60274124145508 41.07275390625 57.0990104675293
C 51.15607452392578 41.617523193359375 55.094234466552734
N 51.577301025390625 42.84974670410156 54.54645538330078
H 51.71885681152344 42.9727783203125 53.55300521850586
C 51.08941650390625 40.43424606323242 54.43749237060547
H 50.734561920166016 39.598819732666016 55.03921127319336
C 51.534976959228516 40.20624923706055 53.09625244140625
C 51.501304626464844 39.0282096862793 52.391258239746094
H 51.29270553588867 38.07427978515625 52.8642578125
C 51.84565353393555 39.303951263427734 51.08283233642578
H 52.03080368041992 38.55583572387695 50.31910705566406
C 52.1530876159668 40.628074645996094 51.0560417175293
N 51.96255874633789 41.15286636352539 52.26175308227539
C 50.336448669433594 47.91636276245117 58.2230224609375
C 49.73126983642578 46.734375 57.89719009399414
H 48.747413635253906 46.54074478149414 58.31684112548828
C 50.29376220703125 45.90228271484375 56.93882369995117
H 49.80024337768555 45.01188278198242 56.557769775390625
C 51.45445251464844 46.20029830932617 56.30353546142578
C 51.5084228515625 48.263999938964844 57.55849075317383
H 52.02166748046875 49.12749481201172 57.97386169433594
C 52.0771369934082 47.3858528137207 56.59086608886719
H 53.12293243408203 47.53012466430664 56.3318977355957
N 49.68214797973633 48.75624084472656 59.24715805053711
H 49.68920135498047 49.71987533569336 58.948089599609375
C 49.474849700927734 48.51696014404297 60.525115966796875
O 49.74612045288086 47.473697662353516 61.038333892822266
C 48.73774719238281 49.64265823364258 61.29302215576172
C 48.382320404052734 50.822776794433594 60.63877487182617
H 48.622161865234375 50.942405700683594 59.58533477783203
C 47.714900970458984 51.88969802856445 61.24588394165039
C 47.60920333862305 51.84601593017578 62.59412384033203
H 47.20170593261719 52.69554138183594 63.13617706298828
C 48.22718811035156 50.814414978027344 63.36682891845703
H 48.325618743896484 51.000221252441406 64.43330383300781
C 48.753883361816406 49.68169403076172 62.700836181640625
H 49.26325988769531 48.860774993896484 63.19902420043945
C 47.34377670288086 53.041080474853516 60.390750885009766
H 47.57860565185547 52.89468002319336 59.337493896484375
C 46.79041290283203 54.21586990356445 60.61676788330078
H 46.40784454345703 54.32526779174805 61.630470275878906
C 46.70804977416992 55.32646560668945 59.64727783203125
C 45.60034942626953 56.26105499267578 59.89726257324219
H 45.10628890991211 55.917213439941406 60.80838394165039
H 44.88524627685547 56.144107818603516 59.08030700683594
H 45.90072250366211 57.3087043762207 59.96559524536133
C 47.57045364379883 55.494258880615234 58.628543853759766
H 48.38709259033203 54.79279327392578 58.46432876586914
C 47.45026779174805 56.51679992675781 57.54833984375
H 46.50132369995117 57.02029037475586 57.36967086791992
C 48.46788024902344 56.94309997558594 56.75901794433594
H 49.48625183105469 56.57546615600586 56.87599563598633
C 48.42966842651367 57.82590866088867 55.65787124633789
C 49.63552474975586 58.77486801147461 55.593170166015625
H 50.02214431762695 59.042484283447266 56.57875442504883
H 50.39918518066406 58.35719299316406 54.93375015258789
H 49.18033218383789 59.693214416503906 55.21647644042969
C 47.48371505737305 57.785552978515625 54.703590393066406
H 46.712440490722656 57.024803161621094 54.81455612182617
C 47.37615966796875 58.47480773925781 53.40607833862305
H 47.977352142333984 59.38070297241211 53.34402084350586
C 46.66487503051758 58.026588439941406 52.35722732543945
H 46.16310501098633 57.07284927368164 52.51386260986328
C 46.522281646728516 58.742469787597656 51.15223693847656
H 46.6219482421875 59.82360076904297 51.23677062988281
C 46.25062942504883 58.22074890136719 49.95290756225586
C 46.237030029296875 56.796844482421875 49.70484924316406
H 46.02394485473633 56.418418884277344 48.70292663574219
H 47.21519470214844 56.38166046142578 49.956398010253906
H 45.4794921875 56.415069580078125 50.39249038696289
C 45.86962127685547 59.030208587646484 48.84490203857422
H 45.73074722290039 58.46156692504883 47.92660140991211
C 45.86404800415039 60.36419677734375 48.672908782958984
H 46.020957946777344 60.94203567504883 49.58252716064453
C 45.43700408935547 61.094093322753906 47.52080535888672
H 44.94987869262695 60.58731460571289 46.68906021118164
C 45.6462287902832 62.370338439941406 47.20030212402344
C 46.525657653808594 63.27009582519531 47.98191833496094
H 45.97581100463867 64.15637969970703 48.30539321899414
H 46.84333038330078 62.74425506591797 48.88471603393555
H 47.44295883178711 63.559181213378906 47.464759826660156
C 45.11311721801758 63.009056091308594 46.0194206237793
H 45.729148864746094 63.85463333129883 45.7170524597168
C 44.04093933105469 62.652809143066406 45.27337646484375
H 43.42692565917969 61.87287902832031 45.72127914428711
C 43.40364074707031 63.157325744628906 44.0717658996582
C 44.05732345581055 63.25127029418945 42.880218505859375
C 45.3980827331543 62.68220901489258 42.6475830078125
H 45.569183349609375 61.82332229614258 43.29988479614258
H 45.57490158081055 62.48534393310547 41.58812713623047
H 46.09128952026367 63.51316833496094 42.79401397705078
C 43.54555130004883 63.9996452331543 41.621971130371094
H 43.82211685180664 63.57576370239258 40.65434646606445
H 43.94729232788086 65.01493072509766 41.605445861816406
C 41.954833984375 64.00544738769531 41.54279327392578
H 41.522621154785156 63.00825881958008 41.436649322509766
H 41.58620834350586 64.72004699707031 40.80392074584961
C 41.49445724487305 64.56397247314453 42.99386215209961
H 41.9614372253418 65.54598236083984 43.09405517578125
H 40.43445587158203 64.78072357177734 42.845951080322266
C 41.91416931152344 63.62897872924805 44.174076080322266
C 41.47403335571289 64.42648315429688 45.407920837402344
H 40.446895599365234 64.7719955444336 45.27347946166992
H 41.642578125 63.919090270996094 46.360084533691406
H 42.041908264160156 65.3585205078125 45.44389724731445
C 40.93231964111328 62.52383804321289 44.2998046875
H 41.209808349609375 61.7802848815918 45.049861907958984
H 39.9041862487793 62.81660842895508 44.52273178100586
H 40.832454681396484 62.042091369628906 43.324913024902344
