207
Triad, Carotenoid-Porphyrin-C60
C 49.09145736694336 66.7700424194336 48.91936111450195
C 45.41297912597656 61.718116760253906 47.268043518066406
C 46.40101623535156 62.12187957763672 49.240421295166016
C 47.26515579223633 64.01644897460938 50.38789367675781
C 44.668270111083984 62.880584716796875 45.296260833740234
C 45.44851303100586 61.941612243652344 45.86653518676758
C 43.686893463134766 63.45258331298828 47.4605827331543
C 44.96345901489258 64.00694274902344 49.8442497253418
C 47.072166442871094 67.75659942626953 48.939876556396484
C 43.77272033691406 63.65300750732422 46.10652542114258
C 48.32238006591797 66.17021942138672 49.90392303466797
C 46.334388732910156 65.65315246582031 43.89649963378906
C 45.3142204284668 63.48644256591797 44.234474182128906
C 47.306636810302734 67.5731430053711 45.051822662353516
C 45.95731735229492 68.11666870117188 46.853294372558594
C 47.206172943115234 68.22734832763672 46.19462203979492
C 44.311683654785156 65.67335510253906 44.89049530029297
C 43.473533630371094 64.6861572265625 48.106937408447266
C 44.19459533691406 64.96788787841797 49.2578239440918
C 44.693729400634766 67.26212310791016 48.56619644165039
C 49.92647933959961 62.589019775390625 46.8693733215332
C 49.095375061035156 62.442962646484375 45.62187576293945
C 48.95991134643555 62.157997131347656 47.94034957885742
C 47.848052978515625 61.6292724609375 47.35947036743164
C 49.23350143432617 67.20259857177734 46.12566375732422
C 49.01900100708008 63.486305236816406 44.685482025146484
C 48.418609619140625 64.7885971069336 50.119659423828125
C 47.572608947753906 65.07170104980469 43.84059143066406
C 46.63916015625 62.91253662109375 44.26881408691406
C 48.5428466796875 66.99528503417969 44.924278259277344
C 48.717098236083984 62.8193359375 49.10993576049805
C 44.96586608886719 66.80885314941406 45.12485122680664
C 44.87344741821289 67.47940826416016 46.354522705078125
C 44.76491928100586 66.21925354003906 49.474246978759766
C 43.450469970703125 65.69349670410156 47.13190841674805
C 50.59549331665039 63.95879364013672 47.18235397338867
C 50.19818878173828 65.04353332519531 46.15542221069336
C 50.17913818359375 64.66959381103516 48.51127243041992
C 49.9505500793457 66.19932556152344 46.78478240966797
C 45.90692901611328 67.91932678222656 48.22634506225586
C 47.89989471435547 61.769287109375 45.98619842529297
C 49.27125930786133 64.0545883178711 49.35637664794922
C 49.974666595458984 66.01142120361328 48.18259811401367
C 47.488121032714844 62.770599365234375 49.82427978515625
C 48.42844772338867 68.12287902832031 46.91573715209961
C 49.458309173583984 64.7614974975586 45.014835357666016
C 47.76856231689453 63.724647521972656 44.05710983276367
C 46.59226989746094 61.562408447265625 48.022762298583984
C 46.707481384277344 61.930023193359375 45.264854431152344
C 44.08443069458008 66.90696716308594 47.363441467285156
C 48.68208312988281 65.76028442382812 44.33284378051758
C 48.33667755126953 67.78126525878906 48.300045013427734
C 44.50212478637695 62.45396423339844 48.03535842895508
C 45.10308837890625 62.697418212890625 49.278656005859375
C 46.04566955566406 64.6718521118164 50.411659240722656
C 47.09520721435547 66.78575134277344 49.94013977050781
C 45.204078674316406 64.8702163696289 44.124027252197266
C 46.1734504699707 66.89405822753906 44.467098236083984
C 45.93751525878906 66.02397155761719 50.17227554321289
C 43.60316848754883 65.03987884521484 45.934837341308594
C 51.09007263183594 61.66105651855469 46.812320709228516
N 52.22747802734375 62.16493225097656 46.95057678222656
C 52.15679168701172 63.64703369140625 47.17881393432617
H 52.736236572265625 64.22595977783203 46.455116271972656
H 52.58791732788086 63.832603454589844 48.16590118408203
C 50.722190856933594 57.28723907470703 47.03062057495117
C 50.88886260986328 57.92808532714844 45.78459548950195
H 50.942893981933594 57.385581970214844 44.84420394897461
C 51.02207565307617 59.345787048339844 45.88090133666992
H 51.163211822509766 59.91040802001953 44.962833404541016
C 51.019317626953125 60.2044677734375 46.95915603637695
C 50.76934051513672 58.07982635498047 48.25421142578125
H 50.71440124511719 57.62218475341797 49.2386474609375
C 50.93063735961914 59.50371551513672 48.1923942565918
H 50.981346130371094 60.12355041503906 49.08390808105469
C 50.524288177490234 55.7520751953125 46.98377990722656
C 50.832618713378906 55.076194763183594 45.70643997192383
C 50.25717544555664 55.08277893066406 44.491641998291016
H 49.34265899658203 55.59434509277344 44.210235595703125
C 51.003204345703125 54.198944091796875 43.66162109375
H 50.80106735229492 53.87525939941406 42.64594268798828
C 52.06874465942383 53.786842346191406 44.387638092041016
N 51.96100616455078 54.38548278808594 45.56795883178711
H 52.593902587890625 54.29533386230469 46.35118103027344
C 53.15952682495117 53.02978515625 44.04702377319336
H 53.622901916503906 53.409263610839844 43.137516021728516
C 53.88322830200195 52.189125061035156 44.81753158569336
C 55.29011535644531 51.98771667480469 44.679954528808594
H 55.944496154785156 52.557464599609375 44.02850341796875
C 55.604347229003906 51.215248107910156 45.78356170654297
H 56.614559173583984 50.93903350830078 46.06711959838867
C 54.45262145996094 50.905982971191406 46.52169418334961
N 53.40799331665039 51.50110626220703 45.920108795166016
C 54.26018524169922 50.253578186035156 47.805076599121094
C 53.69109344482422 50.7576904296875 48.95382308959961
C 53.95576095581055 50.44770050048828 50.32022476196289
H 54.83412551879883 49.90419006347656 50.652339935302734
C 53.01087188720703 51.11940002441406 51.11833953857422
H 52.975746154785156 51.188575744628906 52.2005615234375
C 52.213680267333984 52.019371032714844 50.37343978881836
N 52.67097473144531 51.67253112792969 49.07524108886719
H 52.24049758911133 52.109275817871094 48.27145767211914
C 51.227806091308594 52.840484619140625 50.81317901611328
H 50.977210998535156 52.87725067138672 51.872310638427734
C 50.62199401855469 53.92333221435547 49.94300842285156
C 49.640872955322266 54.903526306152344 50.22462463378906
H 49.2543830871582 55.106903076171875 51.21784973144531
C 49.41252517700195 55.535728454589844 49.05500030517578
H 48.832275390625 56.43268585205078 48.865257263183594
C 50.34565734863281 55.166404724121094 48.1882438659668
N 50.923614501953125 54.078460693359375 48.670326232910156
C 55.850486755371094 46.1416015625 47.66679763793945
C 55.06135177612305 46.47126007080078 48.68321990966797
H 54.7599983215332 45.8109130859375 49.49235534667969
C 54.569129943847656 47.77851867675781 48.75244140625
H 53.838218688964844 48.00548553466797 49.52433395385742
C 54.7593879699707 48.78291320800781 47.73450469970703
C 55.851966857910156 46.91785430908203 46.56554412841797
H 56.26121139526367 46.444984436035156 45.676448822021484
C 55.38071060180664 48.212059020996094 46.581058502197266
H 55.59287643432617 48.74500274658203 45.65773391723633
N 56.19289779663086 44.83624267578125 47.52669906616211
H 55.414432525634766 44.20677947998047 47.652557373046875
C 57.45591354370117 44.30620574951172 47.58424377441406
O 58.395076751708984 45.08092498779297 47.7272834777832
C 57.624088287353516 42.80280303955078 47.40183639526367
C 56.56113052368164 41.91242218017578 47.44331359863281
H 55.571231842041016 42.34577941894531 47.56111145019531
C 56.763031005859375 40.537681579589844 47.29353332519531
C 58.09182357788086 40.093170166015625 47.142112731933594
H 58.2406120300293 39.02813720703125 46.983543395996094
C 59.13917922973633 41.01824951171875 47.159812927246094
H 60.17439651489258 40.71759033203125 47.02020263671875
C 58.926578521728516 42.37488555908203 47.33121871948242
H 59.77261734008789 43.05432891845703 47.266746520996094
C 55.66108703613281 39.574493408203125 47.35185623168945
H 54.72806930541992 40.09612274169922 47.559959411621094
C 55.5685920715332 38.26628112792969 47.13576889038086
H 56.48405456542969 37.73301696777344 46.88381576538086
C 54.34859848022461 37.40533447265625 47.19563674926758
C 54.05681610107422 36.63990020751953 46.00126266479492
H 54.92671203613281 36.083152770996094 45.64662551879883
H 53.67984390258789 37.32843780517578 45.24213790893555
H 53.235965728759766 35.93901062011719 46.16689682006836
C 53.728275299072266 37.26127624511719 48.37661361694336
H 54.05403137207031 37.93982696533203 49.163612365722656
C 52.57722854614258 36.478660583496094 48.781429290771484
H 51.9846305847168 35.885719299316406 48.086326599121094
C 52.01948547363281 36.722801208496094 49.984073638916016
H 52.46138000488281 37.54661560058594 50.54262924194336
C 50.755340576171875 36.25511169433594 50.4360466003418
C 50.23878479003906 37.063568115234375 51.615997314453125
H 50.07741165161133 36.28693389892578 52.36650466918945
H 50.95652389526367 37.84814453125 51.864501953125
H 49.305274963378906 37.56396484375 51.350257873535156
C 50.11680603027344 35.12781524658203 49.97549819946289
H 50.53141784667969 34.589839935302734 49.124263763427734
C 48.87521743774414 34.61656951904297 50.48584747314453
H 48.3352165222168 35.34468078613281 51.08931350708008
C 48.407100677490234 33.3638801574707 50.2051887512207
H 49.008392333984375 32.81800842285156 49.47965621948242
C 47.205162048339844 32.62696075439453 50.71934127807617
H 46.65503692626953 33.15647506713867 51.49580764770508
C 46.79726028442383 31.377403259277344 50.48868942260742
C 47.550132751464844 30.48019027709961 49.56046676635742
H 47.64744567871094 31.040420532226562 48.62818908691406
H 48.56193161010742 30.222984313964844 49.88075256347656
H 46.977516174316406 29.615253448486328 49.21921157836914
C 45.717525482177734 30.675968170166016 51.052364349365234
H 45.70520782470703 29.605587005615234 50.85222244262695
C 44.75571060180664 31.298656463623047 51.75294876098633
H 44.74876022338867 32.38762664794922 51.75493621826172
C 43.535152435302734 30.599761962890625 52.213829040527344
H 43.5697021484375 29.511363983154297 52.20314025878906
C 42.39695739746094 31.13907241821289 52.65190887451172
C 42.27982711791992 32.617576599121094 52.80095291137695
H 41.2952880859375 32.94272994995117 53.14362335205078
H 43.10856246948242 32.81306457519531 53.48465347290039
H 42.5609130859375 33.08046340942383 51.852691650390625
C 41.30890655517578 30.349605560302734 53.24882125854492
H 40.79684829711914 30.853012084960938 54.067543029785156
C 40.77519989013672 29.19524383544922 52.94554901123047
H 41.17586135864258 28.732158660888672 52.04502487182617
C 39.556488037109375 28.64267349243164 53.6276741027832
C 39.3121452331543 28.816112518310547 54.918888092041016
C 40.1392707824707 29.552982330322266 56.01840591430664
H 39.63356399536133 30.436626434326172 56.413246154785156
H 40.14741516113281 28.903507232666016 56.896236419677734
H 41.210418701171875 29.61119842529297 55.81415939331055
C 38.06045150756836 28.302764892578125 55.61351013183594
H 37.50831604003906 29.243282318115234 55.6685905456543
H 38.31303787231445 27.97652816772461 56.62456512451172
C 37.058692932128906 27.38349151611328 54.7234992980957
H 36.06290817260742 27.404979705810547 55.171173095703125
H 37.270713806152344 26.314708709716797 54.65132522583008
C 37.16154479980469 27.928546905517578 53.27872848510742
H 36.53650665283203 27.365245819091797 52.58267593383789
H 36.839454650878906 28.97152328491211 53.24831771850586
C 38.57504653930664 27.867050170898438 52.724788665771484
C 38.94101333618164 26.37419891357422 52.501129150390625
H 39.0228157043457 25.73474884033203 53.38253402709961
H 38.14474105834961 25.944828033447266 51.8895263671875
H 39.870208740234375 26.180034637451172 51.96135711669922
C 38.48198318481445 28.556392669677734 51.38679504394531
H 39.40898132324219 28.435840606689453 50.82233810424805
H 37.70864486694336 28.153934478759766 50.72919464111328
H 38.331119537353516 29.625362396240234 51.55113983154297
