207
Triad, Carotenoid-Porphyrin-C60
C 36.11296463012695 51.28232955932617 39.064231872558594
C 34.833431243896484 54.12655258178711 44.56703567504883
C 36.444766998291016 54.576961517333984 43.1161994934082
C 36.97467803955078 54.217838287353516 40.7536735534668
C 32.70989990234375 53.0282096862793 44.74022674560547
C 34.05079650878906 53.13111114501953 45.15332794189453
C 33.052734375 54.93160629272461 43.221866607666016
C 34.988731384277344 55.422855377197266 41.405330657958984
C 34.310428619384766 52.39236068725586 38.46479034423828
C 32.18014907836914 54.00264358520508 43.79304504394531
C 36.455108642578125 52.61246871948242 39.03565979003906
C 31.98650360107422 50.01807403564453 42.96683120727539
C 32.496089935302734 51.64311599731445 44.642242431640625
C 32.42607498168945 49.622154235839844 40.628639221191406
C 32.131988525390625 51.61506652832031 39.291297912597656
C 32.726253509521484 50.35466766357422 39.48543930053711
C 31.137622833251953 52.13770294189453 42.67876434326172
C 32.69801330566406 55.13093185424805 41.884918212890625
C 33.675228118896484 55.384639739990234 40.949241638183594
C 32.660770416259766 53.85515594482422 39.43533706665039
C 37.62405014038086 50.5326042175293 43.54978942871094
C 36.263736724853516 50.40240478515625 44.362892150878906
C 37.68577194213867 52.061981201171875 43.47843551635742
C 36.70445251464844 52.62026596069336 44.384002685546875
C 34.59032440185547 49.14076232910156 40.055904388427734
C 35.244991302490234 49.568363189697266 44.05280685424805
C 37.324310302734375 53.06452178955078 40.043113708496094
C 33.11634826660156 49.32395935058594 43.32162094116211
C 33.64389419555664 50.9680061340332 45.01091003417969
C 33.614376068115234 48.88229751586914 41.021453857421875
C 37.83322525024414 52.76665115356445 42.29280090332031
C 31.052227020263672 51.45254898071289 41.46492004394531
C 31.304447174072266 52.21438980102539 40.30498123168945
C 33.67351150512695 54.771060943603516 39.727638244628906
C 31.68621253967285 54.239288330078125 41.612449645996094
C 37.542320251464844 49.78758239746094 42.171226501464844
C 36.24004364013672 49.08538055419922 41.87656784057617
C 37.51642990112305 50.78873825073242 40.93543243408203
C 35.920494079589844 49.30542755126953 40.52796936035156
C 32.94709014892578 52.64320373535156 38.80220413208008
C 35.95370101928711 51.644744873046875 44.9697265625
C 37.80241775512695 52.18180847167969 40.99772262573242
C 36.66672897338867 50.39098358154297 40.006797790527344
C 37.2835693359375 54.05306625366211 42.11027526855469
C 34.027400970458984 50.053070068359375 39.13454818725586
C 35.244537353515625 48.94303894042969 42.83234405517578
C 33.941429138183594 49.824127197265625 44.35081100463867
C 36.14320373535156 53.878604888916016 44.235477447509766
C 34.63629913330078 51.847469329833984 45.3282585144043
C 31.657756805419922 53.5580940246582 40.40442657470703
C 33.98318099975586 48.84416198730469 42.31476974487305
C 34.81829071044922 51.09469985961914 38.59172821044922
C 34.3428955078125 55.00801467895508 43.647369384765625
C 35.340824127197266 55.303436279296875 42.749732971191406
C 35.81191635131836 54.913326263427734 40.3893928527832
C 35.278926849365234 53.328224182128906 38.72358703613281
C 31.69559669494629 51.25136947631836 43.589115142822266
C 31.614727020263672 50.20230484008789 41.62882614135742
C 35.012855529785156 54.54995346069336 39.34474182128906
C 31.323192596435547 53.53900146484375 42.76097869873047
C 38.89381790161133 50.0252685546875 44.17124557495117
N 39.50157928466797 49.1309814453125 43.45576858520508
C 38.798606872558594 48.839996337890625 42.144535064697266
H 38.47613525390625 47.79642105102539 42.1043701171875
H 39.54159927368164 49.07686233520508 41.37869644165039
C 40.155799865722656 51.190120697021484 48.11603927612305
C 39.12772750854492 50.2661018371582 47.940406799316406
H 38.646209716796875 49.76393508911133 48.775596618652344
C 38.720096588134766 49.94213104248047 46.6168098449707
H 37.928565979003906 49.226531982421875 46.4095344543457
C 39.38254165649414 50.41508483886719 45.51270294189453
C 40.88799285888672 51.547115325927734 46.98781967163086
H 41.83293914794922 52.077369689941406 47.07432174682617
C 40.53012466430664 51.16725540161133 45.68328857421875
H 41.149513244628906 51.36497116088867 44.81217575073242
C 40.48529052734375 51.66928482055664 49.46458435058594
C 39.68281936645508 51.22005081176758 50.555965423583984
C 38.33545684814453 51.25664138793945 50.910465240478516
H 37.56825637817383 51.6970100402832 50.28221130371094
C 38.22266387939453 50.8641242980957 52.30240249633789
H 37.401729583740234 50.89739227294922 53.01105499267578
C 39.46915054321289 50.447574615478516 52.71889877319336
N 40.31294631958008 50.61117172241211 51.60002136230469
H 41.3072624206543 50.46529769897461 51.71040725708008
C 39.91096878051758 49.949222564697266 53.967166900634766
H 39.25069808959961 49.58378982543945 54.75229263305664
C 41.187767028808594 49.603782653808594 54.27568435668945
C 41.487300872802734 48.77894592285156 55.35633087158203
H 40.759281158447266 48.39581298828125 56.06373977661133
C 42.848453521728516 48.6070671081543 55.37704849243164
H 43.38618850708008 47.92847442626953 56.03094482421875
C 43.36019515991211 49.21059036254883 54.19294738769531
N 42.32827377319336 49.81475830078125 53.551063537597656
C 44.75592803955078 49.22260284423828 53.70796203613281
C 45.22834014892578 50.431434631347656 53.22657012939453
C 46.20530700683594 51.31369400024414 53.76771926879883
H 46.760292053222656 51.11789321899414 54.67924499511719
C 46.08445358276367 52.51792526245117 53.130592346191406
H 46.52300262451172 53.48405456542969 53.357513427734375
C 45.03172302246094 52.48886489868164 52.12413787841797
N 44.590579986572266 51.180904388427734 52.271095275878906
H 44.008060455322266 50.76335906982422 51.55804443359375
C 44.56547546386719 53.42805099487305 51.21662521362305
H 45.189186096191406 54.320255279541016 51.18689727783203
C 43.36725616455078 53.385658264160156 50.34107208251953
C 42.86290740966797 54.29227066040039 49.289669036865234
H 43.332096099853516 55.18876647949219 48.89802932739258
C 41.70884704589844 53.67240524291992 48.927242279052734
H 41.01271057128906 54.01608657836914 48.169281005859375
C 41.51313400268555 52.49490737915039 49.587379455566406
N 42.55625915527344 52.33888244628906 50.38188171386719
C 47.114742279052734 45.63725280761719 53.51311111450195
C 47.6164436340332 46.88642501831055 53.09360122680664
H 48.62105941772461 46.83369827270508 52.681861877441406
C 46.89961242675781 48.03684616088867 53.20734405517578
H 47.301490783691406 49.03989028930664 53.089134216308594
C 45.5917854309082 47.98869705200195 53.661739349365234
C 45.81131362915039 45.62812805175781 53.914794921875
H 45.41524124145508 44.65804672241211 54.204002380371094
C 45.034645080566406 46.775753021240234 54.015113830566406
H 44.003963470458984 46.66501998901367 54.342247009277344
N 47.867977142333984 44.47954559326172 53.646846771240234
H 47.327842712402344 43.63429260253906 53.5378303527832
C 49.13341522216797 44.42414855957031 54.13140106201172
O 49.74551010131836 45.431983947753906 54.43705368041992
C 49.81037902832031 43.04680252075195 54.22626495361328
C 51.15131378173828 43.035064697265625 54.37860870361328
H 51.63595962524414 44.007083892822266 54.4218635559082
C 51.79010009765625 41.820770263671875 54.412322998046875
C 51.06988525390625 40.62711715698242 54.373653411865234
H 51.56863784790039 39.66204071044922 54.411643981933594
C 49.72956466674805 40.68560791015625 54.26200485229492
H 49.21847152709961 39.72811508178711 54.321685791015625
C 49.078697204589844 41.875038146972656 54.1833610534668
H 47.99467086791992 41.955047607421875 54.19066619873047
C 53.352134704589844 41.748897552490234 54.432865142822266
H 53.827022552490234 42.726871490478516 54.49586868286133
C 54.121604919433594 40.65985107421875 54.46519088745117
H 53.68739318847656 39.662376403808594 54.4158935546875
C 55.618106842041016 40.57530212402344 54.36091613769531
C 56.0302619934082 39.106712341308594 54.31806564331055
H 56.03515625 38.8017578125 53.26952362060547
H 55.27859115600586 38.41875457763672 54.71071243286133
H 56.961639404296875 38.88468551635742 54.843143463134766
C 56.4814453125 41.60837936401367 54.43119812011719
H 56.0009880065918 42.58488845825195 54.39227294921875
C 57.92319869995117 41.5694694519043 54.42698669433594
H 58.31826400756836 40.55577087402344 54.37949752807617
C 58.67288589477539 42.67808532714844 54.316162109375
H 58.291893005371094 43.690120697021484 54.1875114440918
C 60.131954193115234 42.70405578613281 54.255836486816406
C 60.733001708984375 41.367835998535156 54.71369934082031
H 61.749176025390625 41.5133056640625 55.08610916137695
H 60.26287078857422 40.9830322265625 55.62109375
H 60.713531494140625 40.66217803955078 53.88055419921875
C 60.79409408569336 43.78703308105469 53.862545013427734
H 60.19683837890625 44.635982513427734 53.533164978027344
C 62.2198371887207 44.04420471191406 53.72359848022461
H 62.96074295043945 43.246341705322266 53.703590393066406
C 62.74786376953125 45.27091598510742 53.49324035644531
H 61.99102020263672 46.044918060302734 53.37482452392578
C 64.06246948242188 45.60469436645508 52.9925651550293
H 64.79386138916016 44.798828125 52.953041076660156
C 64.54136657714844 46.766510009765625 52.64811325073242
C 63.76717758178711 48.04140853881836 52.827144622802734
H 63.00693130493164 48.08155822753906 52.044288635253906
H 63.34066390991211 48.170833587646484 53.824039459228516
H 64.32801818847656 48.95356369018555 52.61292266845703
C 65.93409729003906 46.934410095214844 52.151485443115234
H 66.57268524169922 46.163028717041016 52.579383850097656
C 66.35518646240234 47.720558166503906 51.147865295410156
H 65.66685485839844 48.40339660644531 50.65201950073242
C 67.76972961425781 47.926753997802734 50.77155303955078
H 68.44544982910156 47.1248893737793 51.06538391113281
C 68.25845336914062 49.00971221923828 50.20525360107422
C 67.36062622070312 50.13080978393555 49.81119918823242
H 66.71502685546875 50.4115104675293 50.645992279052734
H 67.92300415039062 51.02073287963867 49.520973205566406
H 66.68614959716797 49.72766876220703 49.052894592285156
C 69.59709930419922 49.083518981933594 49.6810188293457
H 69.72013092041016 49.920814514160156 48.99565887451172
C 70.56709289550781 48.14250946044922 49.91968536376953
H 70.29039764404297 47.248931884765625 50.477256774902344
C 71.93827056884766 48.08014678955078 49.33513259887695
C 72.63639831542969 49.15078353881836 48.809730529785156
C 72.26820373535156 50.657901763916016 48.855709075927734
H 73.12812805175781 51.32368469238281 48.757076263427734
H 71.57049560546875 50.842681884765625 48.0362434387207
H 71.66517639160156 50.86247253417969 49.742820739746094
C 74.03343200683594 49.032840728759766 48.15998458862305
H 74.65970611572266 49.83439254760742 48.557167053222656
H 73.89543914794922 49.29958724975586 47.1100959777832
C 74.8102798461914 47.73078918457031 48.151763916015625
H 75.3071517944336 47.64894485473633 49.120723724365234
H 75.60023498535156 47.60802459716797 47.40787887573242
C 73.64718627929688 46.63899612426758 48.10092544555664
H 73.26531982421875 46.9046516418457 47.11296463012695
H 74.110595703125 45.66016387939453 47.960899353027344
C 72.54544830322266 46.69443893432617 49.0932731628418
C 71.48497772216797 45.66584014892578 48.835723876953125
H 71.93705749511719 44.765811920166016 48.41376876831055
H 71.15496063232422 45.3776969909668 49.83598327636719
H 70.66123962402344 46.02402114868164 48.21474075317383
C 73.1893539428711 46.10706329345703 50.311038970947266
H 72.58638763427734 46.31055450439453 51.19844055175781
H 73.38349914550781 45.03506851196289 50.23619079589844
H 74.16015625 46.5676383972168 50.5056266784668
