207
Triad, Carotenoid-Porphyrin-C60
C 51.162696838378906 50.604515075683594 31.911901473999023
C 53.45677947998047 56.075584411621094 34.27526092529297
C 54.1661376953125 54.01964569091797 34.54916000366211
C 54.142723083496094 51.803810119628906 33.523277282714844
C 52.04231262207031 57.166595458984375 32.70448303222656
C 52.312896728515625 56.78620910644531 33.97395324707031
C 54.07807922363281 56.315093994140625 31.929306030273438
C 55.09538269042969 53.67365264892578 32.31528854370117
C 52.09325408935547 51.3353271484375 30.034156799316406
C 52.94744110107422 57.01416015625 31.67755889892578
C 52.545555114746094 50.642913818359375 32.113529205322266
C 49.10325622558594 56.007476806640625 31.129201889038086
C 50.66477966308594 57.203895568847656 32.480873107910156
C 48.85468292236328 53.85009002685547 30.127779006958008
C 50.973114013671875 53.23149871826172 29.01583480834961
C 49.75305938720703 52.87034606933594 29.566198348999023
C 51.047828674316406 56.63226318359375 30.18718719482422
C 54.29315948486328 55.466041564941406 30.833450317382812
C 54.724205017089844 54.14013671875 31.0557804107666
C 53.193359375 53.362831115722656 29.40155792236328
C 50.28276062011719 53.064308166503906 35.90637969970703
C 49.986785888671875 54.41712188720703 35.37934494018555
C 51.834007263183594 53.240325927734375 35.79157638549805
C 52.17927551269531 54.585960388183594 35.67122268676758
C 48.8961181640625 52.092674255371094 31.431177139282227
C 48.95989990234375 54.690528869628906 34.43556213378906
C 53.07408905029297 50.93488311767578 33.36637878417969
C 48.50689697265625 55.46672058105469 32.302406311035156
C 50.089073181152344 56.72736358642578 33.68050765991211
C 48.30574035644531 53.33209228515625 31.31418800354004
C 52.676239013671875 52.2596435546875 35.205116271972656
C 50.46617889404297 55.54283905029297 29.41342544555664
C 51.33570098876953 54.5628662109375 28.966266632080078
C 54.24803161621094 53.0665283203125 30.318967819213867
C 53.28422546386719 55.72532653808594 29.8964900970459
C 49.71412658691406 51.896087646484375 35.05028533935547
C 48.823753356933594 52.33160400390625 33.88706970214844
C 50.782440185546875 51.04987335205078 34.265594482421875
C 49.12517547607422 51.606712341308594 32.74977111816406
C 52.12663269042969 52.51019287109375 29.331314086914062
C 51.065162658691406 55.33184814453125 35.39638137817383
C 52.16596221923828 51.215728759765625 34.40851974487305
C 50.30902099609375 50.873443603515625 32.96891403198242
C 53.84021759033203 52.684669494628906 34.612667083740234
C 49.732154846191406 51.76220703125 30.36467933654785
C 48.43951416015625 53.63829803466797 33.68291473388672
C 49.01093292236328 55.78740692138672 33.56028747558594
C 53.34795379638672 54.95936584472656 35.07773208618164
C 51.11543273925781 56.50834655761719 34.615379333496094
C 52.70347595214844 54.668174743652344 29.25360679626465
C 48.15709686279297 54.153663635253906 32.39358139038086
C 50.920562744140625 51.00690460205078 30.630935668945312
C 54.32981872558594 55.81713104248047 33.221099853515625
C 54.835899353027344 54.530677795410156 33.428558349609375
C 54.71898651123047 52.34272766113281 32.37092971801758
C 53.15309143066406 51.088966369628906 30.944252014160156
C 50.179962158203125 56.875709533691406 31.22870635986328
C 49.210044860839844 55.18833923339844 29.97789764404297
C 54.20185089111328 51.950103759765625 31.119068145751953
C 52.42223358154297 56.67510223388672 30.41048240661621
C 49.794029235839844 52.74585723876953 37.3476448059082
N 49.085906982421875 51.68638610839844 37.41949462890625
C 48.95433044433594 51.0123291015625 36.073524475097656
H 47.88487243652344 51.031455993652344 35.848697662353516
H 49.356834411621094 49.996498107910156 36.10060119628906
C 50.58782958984375 55.278602600097656 40.74644088745117
C 49.50750732421875 55.46380615234375 39.892147064208984
H 48.81878662109375 56.284576416015625 40.07537078857422
C 49.262855529785156 54.658905029296875 38.818912506103516
H 48.34765625 54.806480407714844 38.251285552978516
C 50.136871337890625 53.639503479003906 38.45124435424805
C 51.4522705078125 54.22925567626953 40.44832992553711
H 52.19563293457031 53.85125732421875 41.145538330078125
C 51.16912841796875 53.39055633544922 39.37165069580078
H 51.87725830078125 52.593788146972656 39.15885925292969
C 50.71485137939453 56.058189392089844 42.01803970336914
C 49.72319030761719 57.08393859863281 42.39188003540039
C 49.23634338378906 58.190704345703125 41.712188720703125
H 49.66801452636719 58.53583526611328 40.77850341796875
C 48.22284698486328 58.762245178222656 42.50472640991211
H 47.634613037109375 59.661529541015625 42.354766845703125
C 48.10581970214844 57.988555908203125 43.6418571472168
N 48.89501190185547 56.909828186035156 43.51686477661133
H 49.119384765625 56.213356018066406 44.21451187133789
C 47.47639465332031 58.449249267578125 44.85206604003906
H 46.83317565917969 59.32537078857422 44.78425979614258
C 47.5443115234375 57.924102783203125 46.125938415527344
C 46.67011260986328 58.261436462402344 47.21062088012695
H 45.890525817871094 59.00617980957031 47.33237838745117
C 47.03187561035156 57.34380340576172 48.18537521362305
H 46.72346496582031 57.130126953125 49.20343780517578
C 48.12535095214844 56.597251892089844 47.695858001708984
N 48.408843994140625 56.96600341796875 46.46281051635742
C 48.92060089111328 55.52154541015625 48.37098693847656
C 50.25475311279297 55.39421081542969 48.13605499267578
C 51.359580993652344 55.54474639892578 49.122642517089844
H 51.18922424316406 55.601654052734375 50.19267272949219
C 52.54071044921875 55.58515167236328 48.4094123840332
H 53.559532165527344 55.62847900390625 48.78004837036133
C 52.26985168457031 55.52301788330078 47.02751541137695
N 50.91767120361328 55.379364013671875 46.94662094116211
H 50.415931701660156 55.25945281982422 46.0771369934082
C 53.183380126953125 55.675689697265625 46.04727554321289
H 54.17277526855469 55.788055419921875 46.48817443847656
C 52.949005126953125 55.76616668701172 44.646568298339844
C 53.84407043457031 55.80864715576172 43.548274993896484
H 54.92694854736328 55.86621856689453 43.51233673095703
C 53.047447204589844 55.84629821777344 42.416595458984375
H 53.37250518798828 55.93060302734375 41.38486862182617
C 51.766578674316406 55.863983154296875 42.8541259765625
N 51.745140075683594 55.717628479003906 44.162757873535156
C 46.635841369628906 52.142417907714844 50.028377532958984
C 48.013763427734375 52.16166687011719 50.11268997192383
H 48.48151397705078 51.32946014404297 50.63249969482422
C 48.740692138671875 53.262962341308594 49.55692672729492
H 49.812660217285156 53.38890838623047 49.685760498046875
C 48.12969207763672 54.41151428222656 49.032379150390625
C 46.03522491455078 53.23109436035156 49.430152893066406
H 44.95709228515625 53.14152526855469 49.324466705322266
C 46.71343994140625 54.413368225097656 49.03322982788086
H 46.078208923339844 55.150047302246094 48.548099517822266
N 45.924705505371094 51.007957458496094 50.55574417114258
H 45.124427795410156 50.766258239746094 49.99074172973633
C 46.25038146972656 50.022789001464844 51.461795806884766
O 47.21315002441406 50.16468048095703 52.16946029663086
C 45.32830810546875 48.84309387207031 51.629398345947266
C 45.34422302246094 48.02943420410156 52.733829498291016
H 46.07099151611328 48.282958984375 53.50135803222656
C 44.392112731933594 47.02105712890625 52.91293716430664
C 43.611000061035156 46.669944763183594 51.854671478271484
H 42.88734436035156 45.86450958251953 51.950374603271484
C 43.62959289550781 47.387481689453125 50.67725372314453
H 42.95701599121094 47.129722595214844 49.8631477355957
C 44.542564392089844 48.442283630371094 50.58698272705078
H 44.639068603515625 48.905601501464844 49.60841751098633
C 44.23114776611328 46.45463562011719 54.30316162109375
H 44.982749938964844 46.965614318847656 54.90309524536133
C 43.480743408203125 45.51079559326172 54.84074020385742
H 42.81926727294922 44.95646667480469 54.17658996582031
C 43.634368896484375 44.959999084472656 56.2030143737793
C 42.357643127441406 44.533878326416016 56.82021713256836
H 42.151832580566406 43.47103500366211 56.96329879760742
H 41.533775329589844 44.864707946777344 56.18441390991211
H 42.24803924560547 45.06690216064453 57.7669677734375
C 44.75801086425781 44.93505859375 56.845584869384766
H 45.66166687011719 45.28343963623047 56.347625732421875
C 45.01831817626953 44.5099983215332 58.1884880065918
H 44.29511260986328 43.854061126708984 58.67082214355469
C 46.04193878173828 44.839874267578125 58.900882720947266
H 46.8876953125 45.39405059814453 58.496517181396484
C 46.456214904785156 44.20914840698242 60.08361053466797
C 47.63922882080078 44.8812255859375 60.801292419433594
H 47.402244567871094 44.924400329589844 61.86639404296875
H 48.51322937011719 44.228519439697266 60.750648498535156
H 48.001220703125 45.85356903076172 60.46074295043945
C 45.819862365722656 43.14229965209961 60.73383712768555
H 44.85504150390625 42.74801254272461 60.41827392578125
C 46.161460876464844 42.5897216796875 62.02003479003906
H 46.80741882324219 43.173004150390625 62.67459487915039
C 45.65531921386719 41.393123626708984 62.4381217956543
H 44.89435577392578 40.89733123779297 61.837249755859375
C 46.159820556640625 40.713096618652344 63.61576461791992
H 47.00501251220703 41.16899871826172 64.12931060791016
C 45.76551818847656 39.51730728149414 64.08768463134766
C 44.612144470214844 38.71419906616211 63.3979377746582
H 44.371360778808594 37.69498062133789 63.707237243652344
H 43.688194274902344 39.290348052978516 63.48056411743164
H 44.931304931640625 38.59779357910156 62.36012649536133
C 46.42852783203125 38.80294418334961 65.17987823486328
H 47.44757080078125 39.088653564453125 65.43647766113281
C 45.94792938232422 37.846492767333984 65.94536590576172
H 44.94886016845703 37.430938720703125 65.82247924804688
C 46.612205505371094 37.20712661743164 67.09193420410156
H 47.44525146484375 37.77861022949219 67.49858856201172
C 46.20301818847656 36.180755615234375 67.8514175415039
C 45.033668518066406 35.36719512939453 67.48015594482422
H 45.11936950683594 34.41263198852539 68.00354766845703
H 44.248191833496094 35.91484832763672 68.0051040649414
H 44.847373962402344 35.206024169921875 66.41630554199219
C 46.86932373046875 35.83251953125 69.1208724975586
H 47.928489685058594 36.0750846862793 69.04841613769531
C 46.363548278808594 35.04206466674805 70.17984771728516
H 45.334991455078125 34.68941879272461 70.1195068359375
C 47.203948974609375 34.6240119934082 71.28535461425781
C 48.000022888183594 35.45669174194336 71.9803695678711
C 48.20454406738281 36.948665618896484 71.74779510498047
H 47.45989227294922 37.3293342590332 71.04561614990234
H 48.1448974609375 37.442726135253906 72.71981048583984
H 49.213584899902344 37.09189224243164 71.35562896728516
C 48.80943298339844 35.064720153808594 73.21595764160156
H 48.222259521484375 35.47334671020508 74.04100799560547
H 49.789894104003906 35.528602600097656 73.0895004272461
C 48.96864318847656 33.53417205810547 73.45875549316406
H 49.38056945800781 33.378509521484375 74.4580307006836
H 49.77354431152344 33.19655227661133 72.80254364013672
C 47.607139587402344 32.90298080444336 73.04481506347656
H 47.667808532714844 31.833263397216797 73.25574493408203
H 46.828392028808594 33.350860595703125 73.66563415527344
C 47.198829650878906 33.1263427734375 71.55044555664062
C 48.129188537597656 32.389434814453125 70.63017272949219
H 47.87779998779297 32.69465255737305 69.6122817993164
H 49.1669921875 32.62552261352539 70.87447357177734
H 48.067588806152344 31.30084991455078 70.69058990478516
C 45.84400177001953 32.49128341674805 71.34471130371094
H 45.58710479736328 32.45073318481445 70.28413391113281
H 45.89616394042969 31.467788696289062 71.72180938720703
H 45.035797119140625 33.080238342285156 71.78334045410156
