207
Triad, Carotenoid-Porphyrin-C60
C 59.959815979003906 52.5461311340332 39.52611541748047
C 55.36536407470703 54.92255401611328 43.43094253540039
C 56.68181610107422 55.987308502197266 41.98664093017578
C 58.03905487060547 55.53224182128906 39.9699821472168
C 54.499000549316406 52.729156494140625 43.8876838684082
C 55.26293182373047 53.81254196166992 44.30047607421875
C 53.98053741455078 53.762596130371094 41.810523986816406
C 55.62052917480469 55.09254837036133 39.95127487182617
C 58.05157470703125 51.847267150878906 38.54218673706055
C 53.83149719238281 52.66825866699219 42.65837860107422
C 59.26959991455078 53.66748046875 39.036075592041016
C 56.45368194580078 49.71640396118164 43.3556022644043
C 55.20384979248047 51.581947326660156 44.29850387573242
C 57.81809997558594 49.085914611816406 41.397483825683594
C 56.79658508300781 50.080970764160156 39.45677947998047
C 57.933021545410156 49.61975860595703 40.143646240234375
C 54.56806945800781 50.37994384765625 42.259925842285156
C 54.06578063964844 53.29724884033203 40.51422119140625
C 54.91786193847656 53.98942184448242 39.584781646728516
C 55.68401336669922 51.86058807373047 38.70695114135742
C 59.93937683105469 54.12411880493164 44.012474060058594
C 58.891639709472656 53.32963562011719 44.696617126464844
C 58.927978515625 55.09828567504883 43.34041213989258
C 57.656959533691406 55.13338851928711 43.96231460571289
C 59.6962890625 50.30900573730469 41.19245910644531
C 58.794830322265625 51.925045013427734 44.61328887939453
C 59.20458984375 54.784751892089844 39.8073844909668
C 57.59387969970703 50.14170455932617 44.04161071777344
C 56.40796661376953 51.996036529541016 44.887428283691406
C 58.891807556152344 49.62328338623047 42.0865478515625
C 59.01978302001953 55.45459747314453 41.99508285522461
C 55.36070251464844 49.63942337036133 41.38619613647461
C 55.4691162109375 50.092124938964844 40.046756744384766
C 55.69275665283203 53.255027770996094 38.67707443237305
C 54.01105499267578 51.92640686035156 40.52370834350586
C 60.823890686035156 53.35685348510742 43.02780532836914
C 60.50598907470703 51.82981491088867 42.95983123779297
C 60.55329132080078 53.72216033935547 41.56511306762695
C 60.481842041015625 51.43760681152344 41.58595275878906
C 56.82886505126953 51.17243576049805 38.63859558105469
C 57.60834503173828 53.99229431152344 44.73445510864258
C 59.82306671142578 54.84311294555664 41.12887954711914
C 60.56004333496094 52.58559036254883 40.76702117919922
C 57.90287780761719 55.91263198852539 41.32835388183594
C 59.1544189453125 50.24624252319336 39.91731262207031
C 59.613975524902344 51.15909194946289 43.77281188964844
C 57.5902099609375 51.26491928100586 44.78236389160156
C 56.550621032714844 55.61941146850586 43.3044319152832
C 56.40265655517578 53.36080551147461 44.95956802368164
C 54.81324005126953 51.2414436340332 39.62522888183594
C 58.829261779785156 50.055213928222656 43.420982360839844
C 59.203636169433594 51.43305587768555 39.191226959228516
C 54.730751037597656 54.862098693847656 42.20265197753906
C 55.542022705078125 55.58249282836914 41.285125732421875
C 56.87000274658203 55.07329177856445 39.302268981933594
C 58.14225769042969 53.2281494140625 38.43342208862305
C 55.268341064453125 50.4569091796875 43.463584899902344
C 56.547752380371094 49.17635726928711 42.06021499633789
C 56.934478759765625 53.94074249267578 38.54826354980469
C 53.845054626464844 51.51807403564453 41.84558868408203
C 60.855308532714844 54.845359802246094 44.90821838378906
N 62.063690185546875 54.50899124145508 44.72062301635742
C 62.27565002441406 53.689964294433594 43.51826477050781
H 62.90430450439453 52.86208724975586 43.855995178222656
H 62.900177001953125 54.13734817504883 42.74079132080078
C 59.412353515625 56.11830139160156 48.91388702392578
C 58.953895568847656 56.698524475097656 47.69440460205078
H 58.119346618652344 57.379730224609375 47.83952713012695
C 59.454322814941406 56.3409423828125 46.45847702026367
H 58.992897033691406 56.77155685424805 45.5734748840332
C 60.391258239746094 55.30979537963867 46.25161361694336
C 60.33241271972656 55.074790954589844 48.70326614379883
H 60.663055419921875 54.56071853637695 49.602134704589844
C 60.82709503173828 54.69617462158203 47.43016052246094
H 61.519622802734375 53.86241149902344 47.34761047363281
C 58.850120544433594 56.43473815917969 50.21328353881836
C 57.7291259765625 57.33225631713867 50.33018493652344
C 57.49913787841797 58.64192581176758 49.94807434082031
H 58.228294372558594 59.27687072753906 49.45573425292969
C 56.135337829589844 58.96580123901367 50.219913482666016
H 55.56114959716797 59.82183837890625 49.881195068359375
C 55.57830047607422 57.893577575683594 50.85756301879883
N 56.611961364746094 57.074310302734375 51.11811065673828
H 56.595001220703125 56.174747467041016 51.57921600341797
C 54.175941467285156 57.506317138671875 51.26499557495117
H 53.47196960449219 58.07749938964844 50.66159439086914
C 53.73845672607422 56.33453369140625 51.83901596069336
C 52.502845764160156 55.7401008605957 51.50631332397461
H 51.87567901611328 56.00129318237305 50.660343170166016
C 52.541175842285156 54.56961441040039 52.226383209228516
H 51.908485412597656 53.689048767089844 52.18716049194336
C 53.61549377441406 54.59796905517578 53.15926742553711
N 54.298614501953125 55.71467971801758 52.92279052734375
C 54.038421630859375 53.638973236083984 54.132320404052734
C 55.33503723144531 53.40932846069336 54.50007247924805
C 55.71830749511719 53.06477737426758 55.813629150390625
H 55.009864807128906 52.92436218261719 56.62333297729492
C 57.058441162109375 53.18958282470703 55.93849182128906
H 57.6846923828125 53.089229583740234 56.81881332397461
C 57.61443328857422 53.70010757446289 54.702919006347656
N 56.540245056152344 53.66409683227539 53.83732604980469
H 56.56043243408203 54.071868896484375 52.91242980957031
C 58.787742614746094 54.2210578918457 54.52482223510742
H 59.51019287109375 54.166378021240234 55.33784484863281
C 59.2559814453125 54.85610580444336 53.311065673828125
C 60.46776580810547 55.57684326171875 53.1412239074707
H 61.24781036376953 55.632118225097656 53.89335250854492
C 60.43089294433594 56.16096496582031 51.89511489868164
H 61.20752716064453 56.80866622924805 51.50198745727539
C 59.23802947998047 55.78162384033203 51.37044906616211
N 58.54234313964844 55.04270553588867 52.162010192871094
C 50.91803741455078 51.44662094116211 56.023006439208984
C 52.19263458251953 50.95197677612305 56.149967193603516
H 52.35906982421875 49.96209716796875 56.567108154296875
C 53.261810302734375 51.68887710571289 55.54505157470703
H 54.26551818847656 51.279510498046875 55.46403121948242
C 53.00157928466797 52.8820915222168 54.848873138427734
C 50.63037109375 52.7193603515625 55.4174690246582
H 49.60987091064453 53.092559814453125 55.44699478149414
C 51.734657287597656 53.36720657348633 54.834373474121094
H 51.507835388183594 54.34138870239258 54.40882110595703
N 49.89019775390625 50.62603759765625 56.55341339111328
H 49.94733428955078 50.384742736816406 57.531471252441406
C 48.97704315185547 50.012474060058594 55.849212646484375
O 48.71857452392578 50.22966003417969 54.65243148803711
C 48.142555236816406 49.072330474853516 56.67885971069336
C 47.28187561035156 48.156558990478516 56.07469177246094
H 47.3111572265625 48.047584533691406 54.99356460571289
C 46.40342712402344 47.34392547607422 56.747684478759766
C 46.37091064453125 47.47949981689453 58.11406707763672
H 45.656700134277344 46.809993743896484 58.586551666259766
C 47.09443664550781 48.47079849243164 58.73882293701172
H 46.970726013183594 48.53467559814453 59.816871643066406
C 47.971649169921875 49.22727584838867 58.046051025390625
H 48.513404846191406 50.076576232910156 58.45442199707031
C 45.57527160644531 46.4501838684082 55.90235900878906
H 45.855552673339844 46.46097183227539 54.85009765625
C 44.57353973388672 45.54742431640625 56.21181869506836
H 44.19850158691406 45.5599250793457 57.234127044677734
C 43.77001190185547 44.619136810302734 55.40907287597656
C 44.39789581298828 44.193359375 54.166229248046875
H 45.45782470703125 44.42558288574219 54.04341125488281
H 43.98851776123047 44.79145812988281 53.34943389892578
H 44.241539001464844 43.12419891357422 54.008392333984375
C 42.530784606933594 44.27418518066406 55.841636657714844
H 42.19740295410156 44.598995208740234 56.82615661621094
C 41.624473571777344 43.438316345214844 55.10845947265625
H 41.938331604003906 42.96940231323242 54.17704391479492
C 40.36919403076172 43.36444854736328 55.42049026489258
H 40.13286590576172 43.91377258300781 56.33060836791992
C 39.258514404296875 42.77348709106445 54.71599578857422
C 38.103790283203125 42.96942901611328 55.50139617919922
H 38.31712341308594 42.92612075805664 56.571475982666016
H 37.6033935546875 43.896915435791016 55.21531677246094
H 37.398765563964844 42.14036560058594 55.41162872314453
C 39.308265686035156 42.34646987915039 53.45797348022461
H 40.28998565673828 42.43421173095703 52.99489212036133
C 38.10711669921875 41.87360382080078 52.67118835449219
H 37.178863525390625 41.98040771484375 53.23052978515625
C 38.02955627441406 41.446685791015625 51.40812683105469
H 38.949562072753906 41.44667434692383 50.8254508972168
C 36.94769287109375 41.02656936645508 50.66970443725586
H 36.011817932128906 41.12205123901367 51.21828079223633
C 36.841835021972656 40.46312713623047 49.4541015625
C 38.03455352783203 40.048038482666016 48.600006103515625
H 37.629791259765625 39.75245666503906 47.62982177734375
H 38.7864990234375 40.83268356323242 48.49335479736328
H 38.60198974609375 39.2257080078125 49.040740966796875
C 35.53260040283203 40.20576095581055 49.0228271484375
H 34.79969024658203 40.932838439941406 49.36941909790039
C 35.03642272949219 39.046993255615234 48.546817779541016
H 35.800636291503906 38.34541320800781 48.21562957763672
C 33.637306213378906 38.65092468261719 48.4361686706543
H 32.962310791015625 39.363685607910156 48.907623291015625
C 33.105247497558594 37.53104019165039 47.878387451171875
C 33.934417724609375 36.49717330932617 47.27598571777344
H 34.65602111816406 37.0137939453125 46.639705657958984
H 34.49940490722656 35.8859748840332 47.98287582397461
H 33.285850524902344 35.83692169189453 46.69643020629883
C 31.69440460205078 37.21428680419922 47.91628646850586
H 31.584564208984375 36.139686584472656 48.0544319152832
C 30.640403747558594 38.010250091552734 47.885108947753906
H 30.725509643554688 39.06710433959961 47.636619567871094
C 29.32715606689453 37.58621597290039 47.96930694580078
C 28.79259490966797 36.66628646850586 48.801944732666016
C 29.58000946044922 35.84787368774414 49.7947998046875
H 30.50261688232422 36.38212585449219 50.031070709228516
H 29.032691955566406 35.73610305786133 50.73310470581055
H 29.70886993408203 34.853363037109375 49.36259078979492
C 27.295310974121094 36.419471740722656 49.00703430175781
H 27.027542114257812 36.40443420410156 50.065589904785156
H 27.119186401367188 35.36061477661133 48.80636215209961
C 26.321701049804688 37.34890365600586 48.26938247680664
H 26.1474609375 38.27818298339844 48.81578063964844
H 25.34398651123047 36.87984848022461 48.14085388183594
C 27.012451171875 37.57677459716797 46.89493179321289
H 27.02130126953125 36.643287658691406 46.32837677001953
H 26.29638671875 38.18068313598633 46.33367156982422
C 28.35839080810547 38.27159881591797 47.01376724243164
C 28.884719848632812 38.252254486083984 45.55513381958008
H 28.071083068847656 38.18315124511719 44.83009338378906
H 29.45282745361328 39.15244674682617 45.311458587646484
H 29.438995361328125 37.324405670166016 45.39908981323242
C 28.104820251464844 39.664127349853516 47.38885498046875
H 29.002487182617188 40.27714920043945 47.28467559814453
H 27.30333709716797 40.119659423828125 46.80355453491211
H 27.76726531982422 39.731727600097656 48.425174713134766
