207
Triad, Carotenoid-Porphyrin-C60
C 50.740936279296875 65.89506530761719 43.844478607177734
C 47.99333190917969 64.95872497558594 49.63321304321289
C 50.201263427734375 64.95457458496094 49.07676696777344
C 51.61846160888672 65.68560028076172 47.33256149291992
C 45.905113220214844 65.73666381835938 48.77481460571289
C 46.750343322753906 64.66917419433594 49.112884521484375
C 47.621498107910156 67.37831115722656 49.48396301269531
C 50.36549377441406 67.29332733154297 48.7281608581543
C 50.25232696533203 68.05085754394531 44.3343505859375
C 46.30492401123047 67.11809539794922 48.91348648071289
C 51.51445007324219 66.32386016845703 44.92038345336914
C 45.075721740722656 65.84239196777344 45.31907653808594
C 45.190208435058594 65.36017608642578 47.61861038208008
C 46.523109436035156 66.67771911621094 43.534549713134766
C 47.845191955566406 68.47804260253906 44.31621551513672
C 47.64763641357422 67.48693084716797 43.40467071533203
C 45.38030242919922 67.56423950195312 46.741111755371094
C 48.141807556152344 68.37344360351562 48.66909408569336
C 49.519142150878906 68.34638214111328 48.30006408691406
C 49.02516174316406 69.15917205810547 46.122718811035156
C 49.146644592285156 62.06047058105469 46.226417541503906
C 47.68096923828125 62.354209899902344 46.55255889892578
C 49.803810119628906 62.74482727050781 47.36835479736328
C 48.8746337890625 63.04167175292969 48.34341812133789
C 48.22901916503906 65.36405181884766 42.814388275146484
C 46.79438781738281 62.79401397705078 45.636474609375
C 51.668609619140625 65.37162017822266 46.00767517089844
C 45.415496826171875 64.49118041992188 44.945682525634766
C 45.578643798828125 64.07513427734375 47.294864654541016
C 46.881568908691406 65.35052490234375 43.150814056396484
C 50.87189483642578 63.64105224609375 47.15027618408203
C 45.76837158203125 67.90504455566406 45.468406677246094
C 46.93348693847656 68.6966552734375 45.33033752441406
C 49.912681579589844 68.75105285644531 47.0419807434082
C 47.221839904785156 68.84446716308594 47.73411178588867
C 49.63478088378906 62.507720947265625 44.76759719848633
C 48.545928955078125 63.15283203125 43.85785675048828
C 50.67082977294922 63.621307373046875 44.73886489868164
C 49.075286865234375 64.32244110107422 43.21644592285156
C 49.13262176513672 68.79192352294922 44.79267883300781
C 47.56798553466797 62.84291076660156 47.82569122314453
C 51.28766632080078 64.09341430664062 45.87916564941406
C 50.268150329589844 64.60169982910156 43.86208724975586
C 51.08356475830078 64.66020202636719 48.10569763183594
C 48.67326354980469 66.65682983398438 43.007469177246094
C 47.22412872314453 63.211334228515625 44.343841552734375
C 45.650390625 63.5770263671875 45.95370864868164
C 49.04383087158203 64.1557846069336 49.189823150634766
C 46.502593994140625 63.663604736328125 48.2049674987793
C 47.625274658203125 69.1786880493164 46.46024703979492
C 46.374046325683594 64.2507553100586 43.93244552612305
C 49.98799133300781 66.9933090209961 43.48011779785156
C 48.461402893066406 66.26913452148438 49.75576400756836
C 49.83147430419922 66.23554992675781 49.48253631591797
C 51.2679443359375 67.05757141113281 47.63078689575195
C 51.174964904785156 67.63536071777344 45.2570686340332
C 44.86271667480469 66.25830078125 46.62811279296875
C 45.581871032714844 66.88209533691406 44.565025329589844
C 50.98412322998047 67.98974609375 46.617271423339844
C 46.04619598388672 68.04776763916016 47.92762756347656
C 49.38169860839844 60.59912872314453 46.24095153808594
N 49.91259765625 60.108551025390625 45.186893463134766
C 50.13555145263672 61.14258575439453 44.174903869628906
H 49.669044494628906 60.92675018310547 43.21031188964844
H 51.17436218261719 61.13850402832031 43.83503341674805
C 48.820823669433594 58.08796691894531 49.68899154663086
C 47.828857421875 58.21722412109375 48.67478561401367
H 46.927886962890625 57.60913848876953 48.68257141113281
C 48.088714599609375 59.069976806640625 47.6441535949707
H 47.29461669921875 59.21857452392578 46.91690444946289
C 49.30133819580078 59.72648620605469 47.46211242675781
C 50.04273986816406 58.773353576660156 49.55048751831055
H 50.84710693359375 58.58711242675781 50.25751495361328
C 50.29827117919922 59.599220275878906 48.43678283691406
H 51.231544494628906 60.152557373046875 48.37059783935547
C 48.67279815673828 57.154518127441406 50.8808479309082
C 47.464630126953125 56.27374267578125 50.931156158447266
C 46.07598114013672 56.476036071777344 50.83373260498047
H 45.61408996582031 57.44609832763672 50.68254470825195
C 45.44971466064453 55.218223571777344 50.89894485473633
H 44.39771270751953 54.98455047607422 50.772743225097656
C 46.32353210449219 54.29872131347656 51.11109161376953
N 47.54058074951172 54.93292999267578 51.09376525878906
H 48.44598388671875 54.487586975097656 51.15727996826172
C 46.102935791015625 52.838768005371094 51.241539001464844
H 45.267433166503906 52.316490173339844 50.777774810791016
C 46.92333984375 51.95866394042969 51.81943893432617
C 47.405677795410156 50.808799743652344 51.1569938659668
H 47.12120819091797 50.41693115234375 50.1860466003418
C 48.46142578125 50.38334655761719 51.843482971191406
H 49.12290954589844 49.5634765625 51.58369827270508
C 48.52381896972656 51.20421600341797 53.03500747680664
N 47.597190856933594 52.18883514404297 53.01732635498047
C 49.468666076660156 51.08055114746094 54.16592025756836
C 50.079071044921875 52.17974853515625 54.76577377319336
C 50.77606964111328 52.23724365234375 56.023536682128906
H 50.83783721923828 51.43115234375 56.747154235839844
C 51.157440185546875 53.583526611328125 56.23455047607422
H 51.70521545410156 54.082130432128906 57.02737045288086
C 50.76922607421875 54.346092224121094 55.09710693359375
N 50.168846130371094 53.454139709472656 54.263343811035156
H 49.835060119628906 53.63158416748047 53.3256721496582
C 50.931610107421875 55.68928527832031 54.94302749633789
H 51.38916015625 56.161834716796875 55.810935974121094
C 50.52893829345703 56.54542541503906 53.888179779052734
C 50.64860534667969 58.00529479980469 53.71543502807617
H 51.09734344482422 58.763221740722656 54.34900665283203
C 49.95378875732422 58.29206848144531 52.54108810424805
H 49.81547546386719 59.289215087890625 52.136383056640625
C 49.562965393066406 57.132965087890625 51.95652389526367
N 49.85907745361328 56.15391540527344 52.78896713256836
C 50.41272735595703 47.011863708496094 55.45295333862305
C 51.257781982421875 48.08252716064453 55.74408721923828
H 52.135406494140625 47.93115234375 56.367332458496094
C 50.97277069091797 49.3714599609375 55.339744567871094
H 51.81111145019531 50.04637908935547 55.49215316772461
C 49.80332946777344 49.65839385986328 54.620018005371094
C 49.31006622314453 47.270172119140625 54.69676208496094
H 48.60851287841797 46.47685241699219 54.45173263549805
C 48.98252868652344 48.60004425048828 54.293521881103516
H 48.13804626464844 48.82727813720703 53.6479377746582
N 50.74390411376953 45.643943786621094 55.74287033081055
H 50.35661315917969 45.031883239746094 55.0403938293457
C 51.22117614746094 45.1103515625 56.87445831298828
O 51.54285430908203 45.83222198486328 57.79720687866211
C 51.387367248535156 43.573890686035156 56.94544982910156
C 51.161651611328125 42.69957733154297 55.87275695800781
H 51.057769775390625 43.07732391357422 54.85881042480469
C 51.14928436279297 41.311012268066406 56.10386276245117
C 51.34864807128906 40.79105758666992 57.389652252197266
H 51.24839782714844 39.734352111816406 57.623958587646484
C 51.58959197998047 41.66228485107422 58.472591400146484
H 51.70063781738281 41.358802795410156 59.51044464111328
C 51.50440216064453 43.048255920410156 58.237403869628906
H 51.47577667236328 43.70604705810547 59.10230255126953
C 50.85407257080078 40.33543395996094 54.9698371887207
H 50.94380187988281 40.81718063354492 53.99732208251953
C 50.60106658935547 38.98759460449219 54.973262786865234
H 50.57257843017578 38.296234130859375 55.81417465209961
C 50.36473846435547 38.118446350097656 53.8465690612793
C 49.529991149902344 38.700565338134766 52.70689392089844
H 49.12254333496094 39.679237365722656 52.968902587890625
H 48.68359375 38.08292007446289 52.399349212646484
H 50.160377502441406 38.67334747314453 51.81563949584961
C 50.797813415527344 36.83638000488281 53.83863830566406
H 51.14789581298828 36.343666076660156 54.744510650634766
C 50.64629364013672 35.869258880615234 52.75617218017578
H 50.616729736328125 36.17783737182617 51.71222686767578
C 50.56659698486328 34.56813430786133 53.03862762451172
H 50.632354736328125 34.260807037353516 54.08129119873047
C 50.401947021484375 33.45964050292969 52.10075378417969
C 49.976051330566406 32.12480545043945 52.6180534362793
H 50.07653045654297 32.17905044555664 53.70406723022461
H 48.9342041015625 31.846912384033203 52.445430755615234
H 50.65447998046875 31.40087127685547 52.1618537902832
C 50.54973602294922 33.59324264526367 50.7944450378418
H 50.962196350097656 34.521244049072266 50.40123748779297
C 50.30738830566406 32.61117935180664 49.737464904785156
H 49.74909210205078 31.734821319580078 50.063385009765625
C 50.379417419433594 32.91354751586914 48.4298210144043
H 50.788482666015625 33.892478942871094 48.184303283691406
C 49.96099853515625 31.983383178710938 47.42241287231445
H 49.442283630371094 31.098190307617188 47.78750991821289
C 49.96577453613281 32.06627655029297 46.098514556884766
C 50.59662628173828 33.1746826171875 45.32011413574219
H 49.9051513671875 33.5590934753418 44.56741714477539
H 50.98274230957031 33.982017517089844 45.94588088989258
H 51.38225555419922 32.74217987060547 44.69705581665039
C 49.3197021484375 31.024765014648438 45.32435989379883
H 48.853904724121094 31.414527893066406 44.42045593261719
C 49.08661651611328 29.703277587890625 45.613651275634766
H 49.609703063964844 29.201988220214844 46.42668151855469
C 48.27264404296875 28.926429748535156 44.70176315307617
H 48.00798797607422 29.36573028564453 43.741092681884766
C 47.700347900390625 27.718711853027344 44.911556243896484
C 47.91722869873047 26.92612075805664 46.19093704223633
H 47.08941650390625 27.130935668945312 46.873016357421875
H 47.82521057128906 25.86254119873047 45.961151123046875
H 48.87535858154297 27.207427978515625 46.63287353515625
C 46.834861755371094 27.00055694580078 43.88943099975586
H 46.50788116455078 26.054946899414062 44.31935119628906
C 46.443992614746094 27.353778839111328 42.645851135253906
H 46.92859649658203 28.18307113647461 42.132667541503906
C 45.57032012939453 26.597637176513672 41.72373962402344
C 44.456298828125 25.99460220336914 42.27854537963867
C 43.867515563964844 26.04161834716797 43.6196174621582
H 43.90729522705078 27.09011459350586 43.92215347290039
H 42.83781433105469 25.686241149902344 43.6964111328125
H 44.365234375 25.427047729492188 44.37263870239258
C 43.590911865234375 25.0511474609375 41.460182189941406
H 42.69432830810547 25.61831283569336 41.20152282714844
H 43.25944519042969 24.250389099121094 42.12454605102539
C 44.204002380371094 24.55786895751953 40.16781234741211
H 43.465110778808594 24.059001922607422 39.537227630615234
H 44.9368896484375 23.838157653808594 40.53843307495117
C 44.87471008300781 25.827686309814453 39.50649642944336
H 45.214698791503906 25.462520599365234 38.53514099121094
H 44.16204833984375 26.639324188232422 39.345829010009766
C 46.05378723144531 26.336143493652344 40.272701263427734
C 47.240379333496094 25.391040802001953 40.03496170043945
H 47.30841827392578 24.976882934570312 39.0268440246582
H 48.20527648925781 25.784618377685547 40.36136245727539
H 47.059303283691406 24.535533905029297 40.68901062011719
C 46.567039489746094 27.56888198852539 39.49834060668945
H 45.874725341796875 28.365280151367188 39.77926254272461
H 47.603355407714844 27.837379455566406 39.71384048461914
H 46.53303527832031 27.344528198242188 38.430179595947266
