207
Triad, Carotenoid-Porphyrin-C60
C 58.62378692626953 40.43877410888672 49.517784118652344
C 56.182701110839844 46.1215934753418 47.60260009765625
C 58.19732666015625 45.264644622802734 47.22142028808594
C 59.35926055908203 43.08536911010742 47.2398681640625
C 53.98957061767578 45.338130950927734 48.16758728027344
C 55.08002471923828 46.1779899597168 48.472190856933594
C 54.982017517089844 44.512935638427734 46.17454528808594
C 57.500694274902344 43.50270462036133 45.73347473144531
C 57.26160430908203 39.629600524902344 47.92235565185547
C 53.926025390625 44.5654182434082 47.040977478027344
C 59.10789489746094 40.95679473876953 48.32118225097656
C 53.19702911376953 42.727779388427734 50.52540588378906
C 53.52301025390625 44.80311965942383 49.331329345703125
C 54.3798828125 40.65394592285156 50.474708557128906
C 54.92987823486328 39.79454803466797 48.35601043701172
C 55.1036376953125 39.766197204589844 49.72295379638672
C 52.78227996826172 42.71738052368164 48.30255889892578
C 55.12919616699219 43.198726654052734 45.75578308105469
C 56.41156005859375 42.68525314331055 45.521705627441406
C 55.68157196044922 40.54206466674805 46.346290588378906
C 58.41874694824219 44.85544967651367 51.412147521972656
C 56.94768524169922 45.328670501708984 51.45558166503906
C 58.806602478027344 45.2122917175293 49.98651885986328
C 57.75758361816406 45.98892593383789 49.41576385498047
C 56.43128967285156 40.51237487792969 51.30375671386719
C 55.916481018066406 44.43465042114258 51.919517517089844
C 59.650604248046875 42.2230339050293 48.30329895019531
C 54.031349182128906 43.163516998291016 51.52363586425781
C 54.284019470214844 45.29378128051758 50.368263244628906
C 55.179603576660156 41.072330474853516 51.51966857910156
C 59.446006774902344 44.32558822631836 49.06744384765625
C 53.12739562988281 41.40536880493164 48.62488555908203
C 53.967002868652344 40.58329391479492 47.80171203613281
C 56.647491455078125 41.37762451171875 45.811485290527344
C 54.11431884765625 42.40840530395508 46.28943634033203
C 58.701171875 43.3842887878418 51.813262939453125
C 57.52604675292969 42.5992546081543 52.12281799316406
C 59.294349670410156 42.52163314819336 50.71192932128906
C 57.56005096435547 41.330509185791016 51.58757019042969
C 55.98442077636719 39.73544692993164 47.42717742919922
C 56.65550994873047 46.05769729614258 50.26995849609375
C 59.70172119140625 42.98603439331055 49.42584991455078
C 58.645973205566406 41.25782775878906 50.69157409667969
C 59.20073699951172 44.38814926147461 47.72895812988281
C 56.37823486328125 39.672386169433594 50.22489929199219
C 56.20451354980469 43.11086654663086 52.278709411621094
C 54.59032440185547 44.44137191772461 51.417236328125
C 57.47815704345703 46.000301361083984 48.075401306152344
C 55.310752868652344 46.11594772338867 49.81707763671875
C 54.47923278808594 41.11564636230469 46.623985290527344
C 55.029136657714844 42.337154388427734 52.079368591308594
C 57.51655578613281 39.624969482421875 49.30425262451172
C 56.07252502441406 45.33878707885742 46.39207458496094
C 57.350250244140625 44.80022048950195 46.23107147216797
C 58.49201202392578 42.63125228881836 46.219444274902344
C 58.248512268066406 40.485862731933594 47.37926483154297
C 52.84741973876953 43.52835464477539 49.45989990234375
C 53.429466247558594 41.410301208496094 49.972564697265625
C 57.91862487792969 41.35809326171875 46.30632781982422
C 53.366661071777344 43.24129104614258 47.10966491699219
C 59.224403381347656 45.63052749633789 52.43872833251953
N 59.84014892578125 44.8639030456543 53.283058166503906
C 59.57642364501953 43.4383430480957 53.07599639892578
H 58.95496368408203 43.11637496948242 53.915504455566406
H 60.477760314941406 42.824771881103516 53.00006866455078
C 59.892478942871094 49.91071701049805 52.703147888183594
C 60.170143127441406 49.20064926147461 51.47462463378906
H 60.58312225341797 49.73781967163086 50.62464904785156
C 60.04136657714844 47.80280685424805 51.495208740234375
H 60.44310760498047 47.241641998291016 50.65540313720703
C 59.38215637207031 47.126041412353516 52.51763916015625
C 59.369590759277344 49.19883346557617 53.782501220703125
H 59.077919006347656 49.74702072143555 54.6746826171875
C 59.084449768066406 47.83302688598633 53.681541442871094
H 58.73170471191406 47.284915924072266 54.55143737792969
C 60.172279357910156 51.37526321411133 52.782615661621094
C 60.74104309082031 52.1303596496582 51.61238098144531
C 61.72239685058594 51.91151809692383 50.698486328125
H 62.45893859863281 51.11800765991211 50.769798278808594
C 61.67040252685547 52.993892669677734 49.801307678222656
H 62.43328857421875 53.25043869018555 49.073699951171875
C 60.593292236328125 53.775394439697266 50.06029510498047
N 59.977783203125 53.1812858581543 51.076873779296875
H 59.07298278808594 53.41536331176758 51.462432861328125
C 60.16575622558594 55.01198196411133 49.41095733642578
H 60.59381866455078 55.23823165893555 48.435508728027344
C 59.30097198486328 55.978816986083984 49.8621826171875
C 59.099334716796875 57.29396438598633 49.27808380126953
H 59.76392364501953 57.6920280456543 48.51841735839844
C 58.17298126220703 57.92302322387695 50.10186004638672
H 57.840003967285156 58.9536247253418 50.166725158691406
C 57.615089416503906 56.917972564697266 50.93064880371094
N 58.33122253417969 55.774532318115234 50.78166961669922
C 56.67718505859375 57.041996002197266 52.00402069091797
C 57.02245330810547 56.70803451538086 53.307411193847656
C 57.02454376220703 57.62514877319336 54.44446563720703
H 56.66883087158203 58.650089263916016 54.43070983886719
C 57.480010986328125 56.99895095825195 55.55042266845703
H 57.69856262207031 57.39384841918945 56.53709411621094
C 57.862342834472656 55.61741256713867 55.23973083496094
N 57.574623107910156 55.576839447021484 53.909461975097656
H 57.822471618652344 54.715457916259766 53.441795349121094
C 58.53533172607422 54.690311431884766 55.88018798828125
H 58.699302673339844 54.92649459838867 56.9305419921875
C 59.10350799560547 53.42611312866211 55.40681457519531
C 59.970298767089844 52.54375076293945 56.13385772705078
H 60.401702880859375 52.58921432495117 57.12836456298828
C 60.58721160888672 51.667301177978516 55.18107604980469
H 61.45487976074219 51.03628921508789 55.342918395996094
C 59.93475341796875 51.95682144165039 53.988731384277344
N 59.094093322753906 53.007320404052734 54.11663818359375
C 52.55023193359375 58.06064224243164 50.979881286621094
C 52.87841796875 57.58469009399414 52.24916076660156
H 52.053138732910156 57.41648483276367 52.936317443847656
C 54.21337890625 57.35126876831055 52.62872314453125
H 54.47987365722656 57.049686431884766 53.63847351074219
C 55.24713134765625 57.420101165771484 51.687889099121094
C 53.577430725097656 58.08344650268555 50.02122497558594
H 53.20812225341797 58.23392105102539 49.01001739501953
C 54.92082977294922 57.71560287475586 50.370826721191406
H 55.673316955566406 57.82917404174805 49.59466552734375
N 51.19135284423828 58.201602935791016 50.54913330078125
H 50.80357360839844 59.121273040771484 50.697174072265625
C 50.37474822998047 57.14522933959961 50.29676818847656
O 50.9443359375 56.08341598510742 50.19725799560547
C 48.86177062988281 57.34318161010742 50.077796936035156
C 48.05706024169922 56.18642807006836 49.95494079589844
H 48.459083557128906 55.179935455322266 50.03815460205078
C 46.66471862792969 56.28850173950195 49.996307373046875
C 46.07572937011719 57.56203079223633 49.952125549316406
H 45.004844665527344 57.639102935791016 49.78230285644531
C 46.83240509033203 58.69478225708008 49.94597625732422
H 46.367897033691406 59.65742111206055 49.74815368652344
C 48.204559326171875 58.55507278442383 50.12489318847656
H 48.79138946533203 59.45685958862305 50.27977752685547
C 45.72337341308594 55.10182571411133 49.98834228515625
H 46.23760223388672 54.142337799072266 50.017906188964844
C 44.364288330078125 55.05949783325195 49.948516845703125
H 43.78282165527344 55.955631256103516 49.73692321777344
C 43.566986083984375 53.82138442993164 49.97145080566406
C 43.810325622558594 52.975826263427734 51.21092987060547
H 44.849891662597656 52.99631881713867 51.54461669921875
H 43.459922790527344 51.949039459228516 51.08683776855469
H 43.24480438232422 53.32503890991211 52.077362060546875
C 42.673011779785156 53.55692672729492 48.990478515625
H 42.64586639404297 54.27419662475586 48.17151641845703
C 41.82221984863281 52.38014602661133 48.872779846191406
H 41.60234069824219 51.84579086303711 49.79583740234375
C 41.11225891113281 52.038089752197266 47.81182861328125
H 41.303733825683594 52.61050796508789 46.90541076660156
C 40.10093688964844 51.09431076049805 47.65998077392578
C 40.002113342285156 50.05020523071289 48.67132568359375
H 41.06561279296875 49.866397857666016 48.83763122558594
H 39.570945739746094 50.53046798706055 49.55218505859375
H 39.55024719238281 49.0877571105957 48.422386169433594
C 39.163734436035156 51.05411911010742 46.71717071533203
H 39.28086853027344 51.85593032836914 45.989646911621094
C 38.026084899902344 50.1919059753418 46.53827667236328
H 37.82976531982422 49.71187210083008 47.495849609375
C 37.23486328125 50.08731460571289 45.43231964111328
H 37.538902282714844 50.552555084228516 44.495819091796875
C 35.99370574951172 49.36703872680664 45.42308807373047
H 35.768226623535156 48.79519271850586 46.32201385498047
C 35.20469665527344 49.17207717895508 44.35353088378906
C 35.42012023925781 49.82840347290039 43.00128936767578
H 34.49805450439453 49.8878288269043 42.419281005859375
H 35.72743225097656 50.85861587524414 43.19280242919922
H 36.12110900878906 49.24936294555664 42.39647674560547
C 33.92633056640625 48.456180572509766 44.583770751953125
H 33.664764404296875 48.50846481323242 45.63959503173828
C 33.24732971191406 47.7942008972168 43.613365173339844
H 33.69789123535156 47.77645492553711 42.622100830078125
C 32.08203125 47.003604888916016 43.81678009033203
H 31.75666618347168 46.86513137817383 44.846778869628906
C 31.2723445892334 46.52760696411133 42.87532043457031
C 31.597829818725586 46.63278579711914 41.401100158691406
H 31.300779342651367 47.62228012084961 41.04737091064453
H 32.626609802246094 46.43207931518555 41.094825744628906
H 31.11090660095215 45.79246139526367 40.90187072753906
C 30.13276481628418 45.71413040161133 43.25225830078125
H 30.009122848510742 45.50559616088867 44.313934326171875
C 29.06490135192871 45.24287796020508 42.45165252685547
H 29.053815841674805 45.47708511352539 41.38819122314453
C 28.129812240600586 44.22722244262695 42.95118713378906
C 27.386022567749023 44.40676498413086 44.04704284667969
C 27.38454246520996 45.578617095947266 44.99711608886719
H 27.807584762573242 46.508365631103516 44.61101531982422
H 26.3596248626709 45.93868637084961 45.108306884765625
H 27.86463737487793 45.39609909057617 45.960784912109375
C 26.285688400268555 43.47053146362305 44.443199157714844
H 25.4460506439209 43.98013687133789 44.920440673828125
H 26.789953231811523 42.78049087524414 45.12291717529297
C 25.752775192260742 42.68209457397461 43.252281188964844
H 25.102834701538086 43.265499114990234 42.59678649902344
H 24.98476219177246 42.00735092163086 43.636131286621094
C 26.893522262573242 42.07036209106445 42.49058532714844
H 27.372587203979492 41.48849868774414 43.28077697753906
H 26.52309226989746 41.35752868652344 41.75091552734375
C 27.89864158630371 43.08980941772461 41.88487243652344
C 29.116270065307617 42.273075103759766 41.63774871826172
H 29.348508834838867 41.70866012573242 42.54326629638672
H 28.918546676635742 41.5126953125 40.87933349609375
H 29.93941307067871 42.92874526977539 41.34624481201172
C 27.43280601501465 43.63496780395508 40.55347442626953
H 26.584997177124023 44.26327133178711 40.83440399169922
H 28.192190170288086 44.23728561401367 40.05047607421875
H 27.27338218688965 42.81130599975586 39.85444641113281
