207
Triad, Carotenoid-Porphyrin-C60
C 63.97431182861328 40.24885940551758 44.049835205078125
C 58.0787239074707 38.939395904541016 41.65644073486328
C 59.13679885864258 40.908729553222656 41.89864730834961
C 61.33272171020508 41.90153884887695 42.14743423461914
C 58.78327178955078 36.64097213745117 41.52587127685547
C 58.06235122680664 37.63934326171875 42.23173522949219
C 59.522247314453125 38.07341766357422 39.84042739868164
C 60.793487548828125 40.58829116821289 40.13954162597656
C 64.60347747802734 39.507484436035156 42.00260925292969
C 59.46114730834961 36.798282623291016 40.339881896972656
C 63.37547302246094 41.13398361206055 43.03755569458008
C 61.38066101074219 35.04603576660156 43.37062454223633
C 59.24714660644531 35.76771545410156 42.51062774658203
C 63.59864044189453 35.957515716552734 43.74932861328125
C 64.23280334472656 37.15332794189453 41.72165298461914
C 64.30528259277344 36.941036224365234 43.064823150634766
C 61.2390251159668 35.33407974243164 41.140846252441406
C 60.77661895751953 38.345802307128906 39.420284271240234
C 61.418609619140625 39.57486343383789 39.469879150390625
C 63.56088638305664 38.45610427856445 39.997535705566406
C 59.619911193847656 39.862430572509766 45.950645446777344
C 59.15583419799805 38.4234504699707 45.589900970458984
C 59.31083679199219 40.53718185424805 44.64344787597656
C 58.391845703125 39.78845977783203 43.857154846191406
C 63.81941604614258 37.67281723022461 45.128231048583984
C 59.93389892578125 37.21084213256836 45.709327697753906
C 62.1785888671875 41.84792709350586 43.22346115112305
C 60.98565673828125 35.54435348510742 44.590999603271484
C 58.918663024902344 36.23456573486328 43.721458435058594
C 63.20691680908203 36.42702102661133 44.994083404541016
C 60.205528259277344 41.29374313354492 43.973609924316406
C 62.56858825683594 35.4326057434082 41.54807662963867
C 63.38700866699219 36.36648178100586 40.86899185180664
C 62.738380432128906 39.61567306518555 39.8470573425293
C 61.52425765991211 37.196861267089844 39.576839447021484
C 61.13473129272461 39.897274017333984 46.34975051879883
C 61.88315200805664 38.5408821105957 46.31406784057617
C 62.036991119384766 40.67988967895508 45.40214157104492
C 63.16269302368164 38.707435607910156 45.72236633300781
C 64.46105194091797 38.41992950439453 41.09166717529297
C 58.29719924926758 38.485511779785156 44.41487503051758
C 61.52521514892578 41.49915313720703 44.392147064208984
C 63.199005126953125 39.99479293823242 45.17109298706055
C 60.07215118408203 41.654415130615234 42.67845916748047
C 64.49369049072266 37.949195861816406 43.9455451965332
C 61.30129623413086 37.25901794433594 46.102386474609375
C 59.786865234375 36.13405227661133 44.83131790161133
C 58.247127532958984 40.01179885864258 42.49504470825195
C 58.162628173828125 37.35835647583008 43.59007263183594
C 62.895538330078125 37.25324249267578 39.95269775390625
C 61.88103103637695 36.225711822509766 45.41144561767578
C 64.64447021484375 39.22637939453125 43.408409118652344
C 58.905025482177734 39.113887786865234 40.524818420410156
C 59.521488189697266 40.37126922607422 40.67554473876953
C 61.684913635253906 41.40481185913086 40.92693328857422
C 63.77348327636719 40.60261154174805 41.79405975341797
C 60.50278854370117 35.117942810058594 42.269412994384766
C 62.67412567138672 35.234832763671875 42.95228958129883
C 62.888004302978516 40.738887786865234 40.708106994628906
C 60.71586990356445 36.20143508911133 40.18379211425781
C 58.88187789916992 40.536930084228516 47.0494270324707
N 59.624691009521484 40.90586471557617 48.06317138671875
C 61.03876495361328 40.440616607666016 47.880393981933594
H 61.29917526245117 39.6230354309082 48.55744934082031
H 61.66008758544922 41.33940124511719 47.852325439453125
C 54.66447448730469 41.620277404785156 47.14300537109375
C 55.17034912109375 40.327613830566406 47.46245193481445
H 54.44456481933594 39.53181838989258 47.60913848876953
C 56.48879623413086 39.95012283325195 47.443809509277344
H 56.87498474121094 38.974761962890625 47.72858810424805
C 57.425167083740234 40.8959846496582 47.10044860839844
C 55.63166046142578 42.64842224121094 46.93241500854492
H 55.33094024658203 43.69196701049805 46.88600540161133
C 56.996604919433594 42.26324462890625 46.84170913696289
H 57.70016860961914 43.06642150878906 46.6380615234375
C 53.17017364501953 41.88435745239258 47.16267013549805
C 52.20390701293945 40.835697174072266 47.455902099609375
C 52.04108810424805 39.576805114746094 46.978614807128906
H 52.65464782714844 39.05511474609375 46.251564025878906
C 50.85975646972656 39.04399871826172 47.576263427734375
H 50.50762939453125 38.022151947021484 47.48106002807617
C 50.36954116821289 40.01996994018555 48.40468215942383
N 51.16451644897461 41.083396911621094 48.216590881347656
H 50.95465850830078 41.992733001708984 48.60542297363281
C 49.34883117675781 39.92707061767578 49.38153076171875
H 48.89876937866211 38.94938659667969 49.54734802246094
C 48.79171371459961 40.8504638671875 50.130088806152344
C 48.52060317993164 40.665245056152344 51.49855422973633
H 48.65625762939453 39.81940841674805 52.1644287109375
C 47.998958587646484 41.86048126220703 51.93339920043945
H 47.81447982788086 41.9784049987793 52.99607849121094
C 47.967594146728516 42.72917175292969 50.846923828125
N 48.503448486328125 42.13228225708008 49.747188568115234
C 47.633331298828125 44.168479919433594 50.82353210449219
C 48.01661682128906 45.042213439941406 49.827484130859375
C 47.411766052246094 46.12871551513672 49.10940170288086
H 46.422908782958984 46.55998992919922 49.22512435913086
C 48.233821868896484 46.588035583496094 48.106685638427734
H 48.148433685302734 47.42656326293945 47.42345428466797
C 49.36098861694336 45.702056884765625 47.990028381347656
N 49.20494079589844 44.91243362426758 49.03867721557617
H 49.90208053588867 44.2970085144043 49.43538284301758
C 50.33406448364258 45.80733871459961 47.08335494995117
H 50.239234924316406 46.70094680786133 46.46821594238281
C 51.4564208984375 44.91309356689453 46.76026153564453
C 52.37947082519531 44.95875549316406 45.69270324707031
H 52.351104736328125 45.68560791015625 44.88764953613281
C 53.15370178222656 43.8693733215332 45.773956298828125
H 53.898536682128906 43.54902267456055 45.0529670715332
C 52.748619079589844 43.17118453979492 46.91157531738281
N 51.69956970214844 43.7982177734375 47.43447494506836
C 45.319095611572266 45.96553421020508 53.931175231933594
C 46.08564376831055 46.68122100830078 53.10466766357422
H 46.18119812011719 47.724586486816406 53.39419937133789
C 46.747100830078125 46.18922805786133 52.03464889526367
H 47.44152069091797 46.81965637207031 51.48517990112305
C 46.8650016784668 44.780704498291016 51.886234283447266
C 45.204891204833984 44.61469268798828 53.691383361816406
H 44.49429702758789 44.07929611206055 54.315860748291016
C 46.05103302001953 44.02799606323242 52.73614501953125
H 45.970035552978516 42.944488525390625 52.70423889160156
N 44.56312561035156 46.63392639160156 54.92366027832031
H 43.91432571411133 47.301734924316406 54.534847259521484
C 44.67916488647461 46.601139068603516 56.260284423828125
O 45.3071403503418 45.74528121948242 56.802223205566406
C 43.803165435791016 47.557098388671875 57.02496337890625
C 43.233741760253906 48.678524017333984 56.43785858154297
H 43.535919189453125 48.839256286621094 55.40614700317383
C 42.31795120239258 49.47002410888672 57.12549591064453
C 41.97828674316406 49.06882858276367 58.42085266113281
H 41.18100357055664 49.60383605957031 58.93042755126953
C 42.57384490966797 47.96480178833008 59.04759979248047
H 42.178829193115234 47.55021667480469 59.971527099609375
C 43.42836380004883 47.23888397216797 58.29579162597656
H 43.790348052978516 46.35777282714844 58.81941223144531
C 41.812923431396484 50.56340408325195 56.340354919433594
H 42.2493896484375 50.581939697265625 55.34281921386719
C 40.92591857910156 51.53846740722656 56.72686004638672
H 40.5144157409668 51.54964065551758 57.73505401611328
C 40.5868034362793 52.724674224853516 55.98808288574219
C 41.42353439331055 53.134910583496094 54.8239631652832
H 42.361114501953125 52.58378601074219 54.725650787353516
H 41.75861740112305 54.17163848876953 54.897335052490234
H 41.03021240234375 52.82841873168945 53.85245132446289
C 39.492733001708984 53.3886833190918 56.256874084472656
H 38.78281784057617 52.99285125732422 56.98162841796875
C 39.06850814819336 54.61983871459961 55.61439514160156
H 39.705848693847656 54.92523193359375 54.785865783691406
C 37.99227523803711 55.30556869506836 56.018707275390625
H 37.37554168701172 54.86290740966797 56.79948425292969
C 37.596431732177734 56.64868927001953 55.499656677246094
C 36.79652404785156 57.4211311340332 56.44922637939453
H 35.767799377441406 57.53352737426758 56.10057830810547
H 36.75204086303711 57.012821197509766 57.461036682128906
H 37.27458190917969 58.400081634521484 56.52391052246094
C 37.833683013916016 57.14776611328125 54.29314422607422
H 38.435733795166016 56.537227630615234 53.621803283691406
C 37.244571685791016 58.33074188232422 53.71647262573242
H 36.26470184326172 58.598026275634766 54.10932159423828
C 37.807926177978516 59.01091003417969 52.6640510559082
H 38.81852722167969 58.74812698364258 52.354942321777344
C 37.233734130859375 60.23181915283203 52.149559020996094
H 36.258548736572266 60.54371643066406 52.52057647705078
C 37.91263961791992 61.03728485107422 51.336326599121094
C 39.27260208129883 60.63803482055664 50.73417282104492
H 39.077144622802734 59.749420166015625 50.13033676147461
H 39.71807098388672 61.48178482055664 50.20303726196289
H 39.995399475097656 60.31233596801758 51.485137939453125
C 37.560054779052734 62.40739440917969 50.95924377441406
H 38.27300262451172 62.871551513671875 50.27940368652344
C 36.57139587402344 63.1345329284668 51.392757415771484
H 35.864723205566406 62.65772247314453 52.07038879394531
C 36.20393753051758 64.46754455566406 50.97988510131836
H 36.79908752441406 64.81897735595703 50.13833236694336
C 35.27110290527344 65.30986785888672 51.527095794677734
C 34.461341857910156 64.85498046875 52.75972366333008
H 35.08686447143555 64.6322021484375 53.626644134521484
H 33.65381622314453 65.55352020263672 52.988677978515625
H 34.00752639770508 63.89408493041992 52.508323669433594
C 35.01042175292969 66.61333465576172 50.89399719238281
H 34.24079132080078 67.17098999023438 51.425601959228516
C 35.58186340332031 67.13645935058594 49.78429412841797
H 36.27867889404297 66.51045989990234 49.228878021240234
C 35.24213409423828 68.38809204101562 49.04978942871094
C 34.238861083984375 69.24690246582031 49.37731170654297
C 33.307865142822266 69.2150650024414 50.541934967041016
H 33.78528594970703 69.47113037109375 51.490074157714844
H 32.55793380737305 70.0045394897461 50.4594841003418
H 32.791107177734375 68.25875854492188 50.43761444091797
C 33.927093505859375 70.52310180664062 48.60398483276367
H 34.278602600097656 71.36648559570312 49.20199203491211
H 32.844730377197266 70.66777038574219 48.60914993286133
C 34.43968200683594 70.44987487792969 47.183143615722656
H 34.38032150268555 71.43325805664062 46.71207046508789
H 33.96364212036133 69.6275863647461 46.64491653442383
C 35.8917236328125 70.15636444091797 47.26042938232422
H 36.42757034301758 70.28019714355469 46.31703186035156
H 36.307308197021484 70.80264282226562 48.0363655090332
C 36.12515640258789 68.69026184082031 47.810787200927734
C 35.89170837402344 67.6854019165039 46.730201721191406
H 36.39059066772461 67.9078598022461 45.78464126586914
H 36.41681671142578 66.7723617553711 47.01844024658203
H 34.840171813964844 67.47549438476562 46.52360153198242
C 37.58694839477539 68.7950439453125 48.1701545715332
H 38.170101165771484 69.21803283691406 47.34950256347656
H 37.87993240356445 69.45697021484375 48.987762451171875
H 37.839107513427734 67.77249908447266 48.4587516784668
