207
Triad, Carotenoid-Porphyrin-C60
C 52.57420349121094 32.01821517944336 54.5397834777832
C 57.43025207519531 36.340023040771484 55.25615310668945
C 55.5799560546875 35.94865036010742 56.498165130615234
C 53.92588806152344 34.28474807739258 56.93626022338867
C 58.7574462890625 35.180965423583984 53.68354415893555
C 57.93738555908203 36.24043655395508 53.96030807495117
C 58.47882843017578 34.260276794433594 55.90129470825195
C 56.21858215332031 33.83773422241211 57.50815200805664
C 54.20043182373047 30.707273483276367 55.228816986083984
C 59.05290222167969 34.15628433227539 54.622806549072266
C 52.943878173828125 32.38726043701172 55.819034576416016
C 57.47444152832031 32.9427375793457 51.116268157958984
C 58.43199920654297 34.82170486450195 52.35902786254883
C 55.778175354003906 31.2974796295166 51.6164665222168
C 56.037574768066406 30.225984573364258 53.74300003051758
C 55.219520568847656 30.59784507751465 52.69156265258789
C 58.765052795410156 32.47955322265625 52.917903900146484
C 58.183258056640625 32.99889373779297 56.342166900634766
C 57.06342315673828 32.78154754638672 57.13785934448242
C 56.50719451904297 30.778711318969727 55.90085983276367
C 53.415306091308594 36.534969329833984 52.88461685180664
C 54.748985290527344 36.514530181884766 52.1501350402832
C 53.928993225097656 36.64176559448242 54.320438385009766
C 55.31391906738281 36.96970748901367 54.37771987915039
C 53.59375 31.88396644592285 51.917057037353516
C 55.07420349121094 35.5070686340332 51.210941314697266
C 52.93975067138672 33.761722564697266 56.14523696899414
C 56.45991516113281 33.75654220581055 50.67746353149414
C 57.369598388671875 35.626468658447266 51.8941764831543
C 54.77247619628906 32.12967300415039 51.17160415649414
C 53.43888854980469 35.82829666137695 55.30955123901367
C 57.92271423339844 31.33860969543457 52.657711029052734
C 57.37835693359375 30.630281448364258 53.74251174926758
C 56.19829559326172 31.65140724182129 56.96175765991211
C 58.43617248535156 32.117767333984375 55.26973342895508
C 52.427024841308594 35.2660026550293 52.67543411254883
C 53.02149200439453 34.24624252319336 51.72806930541992
C 52.13719177246094 34.36045837402344 53.93532180786133
C 52.816444396972656 32.94401168823242 52.26937484741211
C 55.56580352783203 30.333154678344727 55.02511215209961
C 55.760536193847656 36.94778823852539 53.0200080871582
C 52.603004455566406 34.69746017456055 55.17002487182617
C 52.25663757324219 33.051082611083984 53.55122756958008
C 54.26481628417969 35.531864166259766 56.437137603759766
C 53.910377502441406 30.927209854125977 52.86258316040039
C 54.22644805908203 34.42181396484375 50.9781379699707
C 56.44078826904297 35.11674880981445 51.01920700073242
C 56.12638854980469 36.7001838684082 55.440303802490234
C 57.09867858886719 36.537662506103516 52.88518142700195
C 57.617042541503906 31.067895889282227 55.04183578491211
C 55.082298278808594 33.382293701171875 50.69876480102539
C 53.369049072265625 30.980581283569336 54.14192581176758
C 57.66643524169922 35.34006118774414 56.210880279541016
C 56.551979064941406 35.14474105834961 57.08916091918945
C 54.921661376953125 33.469966888427734 57.46046829223633
C 53.894439697265625 31.52613639831543 56.28506088256836
C 58.44799041748047 33.48276138305664 51.92836380004883
C 57.069061279296875 31.70932960510254 51.634517669677734
C 54.91022491455078 32.07168960571289 57.1139030456543
C 59.09111022949219 32.81052780151367 54.26681900024414
C 52.673072814941406 37.72585678100586 52.33919143676758
N 51.52742004394531 37.43784713745117 51.87472915649414
C 51.209999084472656 35.98593521118164 52.00119400024414
H 51.016693115234375 35.62773513793945 50.986812591552734
H 50.299072265625 35.9148063659668 52.60103225708008
C 53.494049072265625 41.86874771118164 52.94565200805664
C 53.402984619140625 41.37142562866211 51.64570236206055
H 53.59180450439453 41.966007232666016 50.75554275512695
C 53.23762512207031 40.020809173583984 51.42679214477539
H 53.343528747558594 39.58572006225586 50.43631362915039
C 52.957763671875 39.164424896240234 52.495540618896484
C 53.12023162841797 41.04238510131836 54.00178909301758
H 52.90855407714844 41.4028434753418 55.00519943237305
C 52.914573669433594 39.67548751831055 53.7631721496582
H 52.69355773925781 38.90103530883789 54.49319839477539
C 53.86859893798828 43.36581802368164 53.142154693603516
C 54.362220764160156 44.13583755493164 51.97966384887695
C 55.224945068359375 43.86439895629883 50.89604568481445
H 55.669166564941406 42.89266586303711 50.70732498168945
C 55.28245544433594 45.08156967163086 50.15836715698242
H 55.92699432373047 45.222171783447266 49.29695510864258
C 54.573890686035156 46.066165924072266 50.83219528198242
N 53.87134552001953 45.37332534790039 51.67238235473633
H 53.027381896972656 45.75326156616211 52.07918930053711
C 54.38604736328125 47.451045989990234 50.54878616333008
H 55.147613525390625 47.819820404052734 49.86326217651367
C 53.526817321777344 48.39145278930664 51.07157516479492
C 53.358245849609375 49.710201263427734 50.59755325317383
H 53.84362030029297 50.06032180786133 49.69253921508789
C 52.455299377441406 50.29142379760742 51.426456451416016
H 52.056304931640625 51.29935836791992 51.47226333618164
C 52.05610656738281 49.32938003540039 52.38898849487305
N 52.81507873535156 48.18740463256836 52.19039535522461
C 51.12310028076172 49.4467887878418 53.525203704833984
C 51.530723571777344 48.99343490600586 54.74711990356445
C 51.44731903076172 49.47409439086914 56.108455657958984
H 51.1561279296875 50.48417282104492 56.3770866394043
C 51.85289764404297 48.590396881103516 57.08524703979492
H 51.90574645996094 48.69893264770508 58.163509368896484
C 52.40855407714844 47.513668060302734 56.382564544677734
N 52.080787658691406 47.79362106323242 55.06087112426758
H 52.3377685546875 47.118045806884766 54.3539924621582
C 53.01734161376953 46.41035842895508 56.897953033447266
H 53.24829864501953 46.43049240112305 57.96199417114258
C 53.412139892578125 45.24570846557617 56.07260513305664
C 54.052947998046875 44.1027946472168 56.53464126586914
H 54.256195068359375 43.92988204956055 57.5863151550293
C 54.352264404296875 43.289554595947266 55.49168014526367
H 54.93397521972656 42.37379837036133 55.4760856628418
C 53.73393249511719 43.8550910949707 54.42544174194336
N 53.14911651611328 45.03232192993164 54.776371002197266
C 47.03411865234375 50.82999038696289 52.877132415771484
C 47.53430938720703 50.447383880615234 54.08626937866211
H 46.948265075683594 50.74140548706055 54.95326614379883
C 48.798988342285156 50.07658767700195 54.343135833740234
H 49.01466369628906 49.80637741088867 55.37369155883789
C 49.71617889404297 49.91575241088867 53.272281646728516
C 47.895751953125 50.7529411315918 51.81669235229492
H 47.593421936035156 51.16823959350586 50.85873031616211
C 49.24041748046875 50.28231430053711 51.9885139465332
H 49.90037536621094 50.247859954833984 51.1254768371582
N 45.740806579589844 51.32754898071289 52.67293167114258
H 45.11796569824219 50.79734420776367 53.26372146606445
C 45.33336639404297 52.4568977355957 52.043880462646484
O 46.10820770263672 53.222843170166016 51.409122467041016
C 43.84535217285156 52.847110748291016 52.09908676147461
C 43.3902587890625 53.77109909057617 51.174129486083984
H 44.11272430419922 54.3798942565918 50.63656234741211
C 42.046241760253906 54.148799896240234 51.15244674682617
C 41.192230224609375 53.46731948852539 52.02180099487305
H 40.17952346801758 53.86222457885742 52.02851486206055
C 41.63510513305664 52.4987678527832 52.899295806884766
H 41.05564498901367 52.0079231262207 53.67703628540039
C 42.99852752685547 52.225215911865234 52.96760177612305
H 43.46385192871094 51.426876068115234 53.5400505065918
C 41.67665481567383 55.219425201416016 50.24983596801758
H 42.61045837402344 55.53947830200195 49.78995132446289
C 40.48875045776367 55.88398361206055 50.03249740600586
H 39.620018005371094 55.54978561401367 50.597774505615234
C 40.1976432800293 56.809383392333984 49.00008773803711
C 38.86713790893555 57.54397964477539 49.152286529541016
H 38.31707763671875 57.37607955932617 50.080570220947266
H 38.27991485595703 57.26719284057617 48.27421188354492
H 39.00925827026367 58.62589645385742 49.11064529418945
C 40.935569763183594 56.97347640991211 47.91653823852539
H 41.8524055480957 56.38584518432617 47.92239761352539
C 40.83999252319336 57.84294509887695 46.776493072509766
H 40.185176849365234 58.70737838745117 46.87593460083008
C 41.3593864440918 57.52841567993164 45.54066848754883
H 42.02873229980469 56.67203903198242 45.60798263549805
C 41.31327438354492 58.21549606323242 44.302852630615234
C 41.70094299316406 57.42085647583008 43.094608306884766
H 40.78872299194336 57.123165130615234 42.57337188720703
H 42.328250885009766 58.09636306762695 42.50925064086914
H 42.20610809326172 56.49399185180664 43.37423324584961
C 40.96141815185547 59.46672439575195 44.26265335083008
H 40.639068603515625 59.96036148071289 45.178260803222656
C 40.829429626464844 60.31930923461914 43.06850051879883
H 40.88410949707031 59.820987701416016 42.10175323486328
C 40.62721633911133 61.61776351928711 43.174461364746094
H 40.57077407836914 62.14937210083008 44.12321472167969
C 40.43849182128906 62.434329986572266 41.97966003417969
H 40.32805633544922 61.855037689208984 41.06415557861328
C 40.13043975830078 63.753971099853516 41.91986083984375
C 39.9838981628418 64.56330871582031 43.10316467285156
H 39.040287017822266 64.35087585449219 43.610042572021484
H 40.76074981689453 64.46725463867188 43.86457061767578
H 39.98526382446289 65.63653564453125 42.90154266357422
C 39.980812072753906 64.43651580810547 40.66215515136719
H 39.162776947021484 65.15229797363281 40.728515625
C 40.604461669921875 64.2055435180664 39.49232482910156
H 41.49585723876953 63.58003616333008 39.50057601928711
C 40.475772857666016 65.10633087158203 38.337520599365234
H 39.68164825439453 65.8491439819336 38.39685821533203
C 41.35158920288086 65.1875228881836 37.334564208984375
C 42.540897369384766 64.2728500366211 37.28145217895508
H 43.17731475830078 64.66634368896484 36.4860954284668
H 43.083168029785156 64.31891632080078 38.22817611694336
H 42.23728942871094 63.25540542602539 37.026329040527344
C 41.2207145690918 66.23096466064453 36.32070541381836
H 40.50656509399414 67.04232788085938 36.453365325927734
C 41.572845458984375 66.17549896240234 35.050682067871094
H 42.01396179199219 65.27792358398438 34.61976623535156
C 41.22715377807617 67.15557098388672 34.02936553955078
C 41.624542236328125 68.46823120117188 34.02818298339844
C 42.287803649902344 69.14009094238281 35.184112548828125
H 42.662803649902344 68.39342498779297 35.88719940185547
H 43.15557861328125 69.71659851074219 34.85688781738281
H 41.53268051147461 69.75643920898438 35.676429748535156
C 41.28807830810547 69.41203308105469 32.94155502319336
H 42.1296501159668 70.09290313720703 32.79793167114258
H 40.577762603759766 70.15725708007812 33.305641174316406
C 40.853492736816406 68.67993927001953 31.594839096069336
H 41.73613357543945 68.3078842163086 31.070444107055664
H 40.36372375488281 69.3459243774414 30.88136863708496
C 39.886863708496094 67.62584686279297 32.00144958496094
H 39.08872604370117 67.97307586669922 32.6609001159668
H 39.39884948730469 67.23529052734375 31.106027603149414
C 40.540252685546875 66.53823852539062 32.84095764160156
C 39.4134407043457 65.6238021850586 33.21430969238281
H 38.600929260253906 66.16920471191406 33.698890686035156
H 39.00837707519531 65.13056182861328 32.3282470703125
H 39.80755615234375 64.78693389892578 33.79464340209961
C 41.49037170410156 65.75947570800781 31.937013626098633
H 41.948184967041016 64.84949493408203 32.33045959472656
H 40.944114685058594 65.41004943847656 31.05839729309082
H 42.284236907958984 66.42713928222656 31.59574317932129
