207
Triad, Carotenoid-Porphyrin-C60
C 50.98057174682617 38.74037551879883 61.240989685058594
C 45.40676498413086 40.746646881103516 58.570106506347656
C 47.16731262207031 39.83855056762695 57.66798400878906
C 49.049991607666016 38.423152923583984 58.202754974365234
C 44.46636962890625 40.988277435302734 60.86952590942383
C 45.003170013427734 41.52138900756836 59.67110824584961
C 44.66390609741211 38.83681106567383 59.866188049316406
C 46.84489059448242 37.644832611083984 58.647159576416016
C 49.474849700927734 37.1904296875 61.955169677734375
C 44.29425811767578 39.58470916748047 60.96945571899414
C 50.483924865722656 38.09805679321289 60.114288330078125
C 46.25262451171875 41.346500396728516 63.864715576171875
C 44.907737731933594 41.703678131103516 61.918209075927734
C 48.17738342285156 39.9398193359375 64.43128204345703
C 47.96796798706055 37.68571853637695 63.699005126953125
C 48.788597106933594 38.7186279296875 64.14388275146484
C 44.97696304321289 39.59488296508789 63.19100570678711
C 45.16887664794922 37.6548957824707 60.36508560180664
C 46.281742095947266 37.03899383544922 59.78834533691406
C 47.215824127197266 36.504390716552734 61.9043083190918
C 49.484779357910156 42.95256805419922 59.43024444580078
C 48.17694854736328 43.28361511230469 60.13038635253906
C 48.82439422607422 41.96683883666992 58.34457015991211
C 47.40567398071289 42.14091110229492 58.292057037353516
C 50.09471130371094 40.36367416381836 63.393768310546875
C 48.100914001464844 43.2919807434082 61.543357849121094
C 50.15754318237305 38.82448959350586 58.99169921875
C 47.14689636230469 42.33293533325195 63.44527816772461
C 45.82386016845703 42.63593292236328 61.44963455200195
C 48.98664474487305 40.928009033203125 63.99972152709961
C 49.341190338134766 40.71672821044922 58.05352783203125
C 46.02207565307617 39.115882873535156 63.96341323852539
C 46.584381103515625 37.832366943359375 63.62375259399414
C 47.293392181396484 36.52473449707031 60.50660705566406
C 45.02211380004883 37.64413070678711 61.76483917236328
C 50.60567855834961 42.344207763671875 60.35507583618164
C 50.208290100097656 42.14373779296875 61.803871154785156
C 50.959625244140625 40.87268829345703 60.00631332397461
C 50.6430549621582 40.90341567993164 62.24282455444336
C 48.35028839111328 36.84385299682617 62.62641143798828
C 47.076480865478516 42.83141326904297 59.415592193603516
C 50.369266510009766 40.17705535888672 58.88728332519531
C 51.08055877685547 40.12112045288086 61.186397552490234
C 48.522613525390625 39.627281188964844 57.70934295654297
C 49.96877670288086 38.978816986083984 63.44526672363281
C 49.092987060546875 42.78076934814453 62.383243560791016
C 46.94270706176758 42.96620559692383 62.202571868896484
C 46.56791687011719 41.08052444458008 57.918819427490234
C 45.82999038696289 42.58378219604492 60.01329040527344
C 46.068180084228516 37.12458801269531 62.55885314941406
C 48.50514602661133 42.13048553466797 63.51057434082031
C 50.356502532958984 38.166011810302734 62.35844421386719
C 45.18092346191406 39.39291763305664 58.651161193847656
C 46.28921127319336 38.78739547729492 58.06710433959961
C 48.202640533447266 37.45371627807617 58.71046447753906
C 49.61125946044922 37.08963394165039 60.60350799560547
C 45.14179992675781 41.01479721069336 63.08269500732422
C 46.80558395385742 40.15102767944336 64.3313980102539
C 48.48492431640625 36.768333435058594 59.88068389892578
C 44.50080108642578 38.86561584472656 62.11018753051758
C 50.214210510253906 44.09806823730469 58.79035949707031
N 51.4051628112793 44.36165237426758 59.197906494140625
C 51.777496337890625 43.41196060180664 60.26240158081055
H 51.860782623291016 43.9550666809082 61.20725631713867
H 52.795982360839844 43.02273941040039 60.1859130859375
C 48.38014221191406 46.735389709472656 55.83621597290039
C 48.73509979248047 45.412593841552734 55.560943603515625
H 48.489654541015625 45.06880569458008 54.55937576293945
C 49.24409103393555 44.55372619628906 56.53498458862305
H 49.35686492919922 43.5059928894043 56.26832580566406
C 49.54790115356445 44.943641662597656 57.8115234375
C 48.68051528930664 47.12422561645508 57.17013931274414
H 48.46075439453125 48.143531799316406 57.477203369140625
C 49.312538146972656 46.295406341552734 58.090049743652344
H 49.58277130126953 46.695404052734375 59.06398391723633
C 47.8309326171875 47.67803955078125 54.82123947143555
C 47.546897888183594 46.98405456542969 53.55253601074219
C 48.31202697753906 46.475257873535156 52.531192779541016
H 49.392051696777344 46.3754768371582 52.502628326416016
C 47.37351608276367 46.0682487487793 51.51188659667969
H 47.703224182128906 45.67573165893555 50.55561828613281
C 46.061256408691406 46.276981353759766 51.88584518432617
N 46.23117446899414 46.926761627197266 53.129276275634766
H 45.41567611694336 47.1802864074707 53.67039108276367
C 44.74593734741211 46.05788040161133 51.235958099365234
H 44.6132926940918 45.02851867675781 50.90618896484375
C 43.691673278808594 46.82779312133789 51.313114166259766
C 42.37409591674805 46.39911651611328 51.322059631347656
H 42.02789306640625 45.37186813354492 51.27589797973633
C 41.619503021240234 47.53398132324219 51.28535842895508
H 40.53633117675781 47.522804260253906 51.2234001159668
C 42.561607360839844 48.66043472290039 51.40180206298828
N 43.83823776245117 48.15272903442383 51.47761535644531
C 42.31629943847656 50.11839294433594 51.36056900024414
C 42.704708099365234 50.81815719604492 52.48365783691406
C 42.11566162109375 51.93857192993164 53.13227081298828
H 41.1197395324707 52.27996063232422 52.86992263793945
C 42.9122200012207 52.3948860168457 54.16920852661133
H 42.64571762084961 53.17498016357422 54.874656677246094
C 44.09493637084961 51.56321334838867 54.2158317565918
N 43.833065032958984 50.648563385009766 53.24285888671875
H 44.47311782836914 49.86600112915039 53.25038528442383
C 45.21678924560547 51.68145751953125 54.95777893066406
H 45.37430191040039 52.56159210205078 55.57944869995117
C 46.34404754638672 50.7288703918457 55.12776565551758
C 47.5563850402832 51.02144241333008 55.799583435058594
H 47.81733703613281 51.91485595703125 56.35720443725586
C 48.269229888916016 49.85963439941406 55.63046646118164
H 49.31219482421875 49.71537399291992 55.892459869384766
C 47.44097137451172 48.949501037597656 55.07402801513672
N 46.30088806152344 49.47358703613281 54.75366973876953
C 41.33436584472656 51.93621063232422 47.56648635864258
C 41.482784271240234 52.76995086669922 48.70686721801758
H 41.50947952270508 53.85221481323242 48.609039306640625
C 41.75184631347656 52.21617889404297 49.96576690673828
H 41.965354919433594 52.82027053833008 50.84386444091797
C 41.92285919189453 50.79989242553711 50.03849792480469
C 41.508846282958984 50.5606803894043 47.66747283935547
H 41.15641403198242 49.91426086425781 46.8677864074707
C 41.804168701171875 50.021793365478516 48.90306854248047
H 42.036582946777344 48.95999526977539 48.914825439453125
N 41.02763748168945 52.457149505615234 46.222381591796875
H 41.48197555541992 51.90432357788086 45.511016845703125
C 40.10737228393555 53.39162063598633 45.795677185058594
O 39.55875015258789 53.96434020996094 46.69102478027344
C 39.866188049316406 53.70953369140625 44.339134216308594
C 40.91676330566406 53.670372009277344 43.395809173583984
H 41.92318344116211 53.451480865478516 43.74333190917969
C 40.71992874145508 54.056766510009766 42.062034606933594
C 39.41728973388672 54.293155670166016 41.7102165222168
H 39.14204025268555 54.57673645019531 40.697601318359375
C 38.35500717163086 54.32724380493164 42.57499694824219
H 37.399208068847656 54.681396484375 42.1973876953125
C 38.559783935546875 53.97360610961914 43.89440155029297
H 37.75677490234375 53.97483444213867 44.62702941894531
C 41.85094451904297 54.174781799316406 41.09191131591797
H 42.80474853515625 53.95069122314453 41.56727981567383
C 41.77566146850586 54.46052551269531 39.77252197265625
H 40.81597137451172 54.7086181640625 39.32155990600586
C 42.82716369628906 54.57078170776367 38.75283432006836
C 42.40995407104492 54.58621597290039 37.30165100097656
H 43.01640701293945 54.00857925415039 36.60092544555664
H 42.61250305175781 55.59185028076172 36.92730712890625
H 41.41874313354492 54.1612663269043 37.130226135253906
C 44.15250015258789 54.650428771972656 39.014339447021484
H 44.49235153198242 54.62171173095703 40.048553466796875
C 45.27668380737305 54.72562789916992 38.06757354736328
H 44.991703033447266 54.737815856933594 37.0165901184082
C 46.60623550415039 54.96916580200195 38.38880920410156
H 46.84408187866211 55.18120574951172 39.43015670776367
C 47.808963775634766 55.03616714477539 37.57783508300781
C 47.84144592285156 54.21417236328125 36.31084060668945
H 46.873477935791016 53.721439361572266 36.19810485839844
H 48.15547180175781 54.86436462402344 35.491634368896484
H 48.616085052490234 53.445072174072266 36.281158447265625
C 48.90436553955078 55.694366455078125 37.97492980957031
H 48.8669319152832 56.298011779785156 38.88054275512695
C 50.163063049316406 55.715248107910156 37.24850082397461
H 50.526302337646484 54.93084716796875 36.58616256713867
C 51.09056091308594 56.63029479980469 37.48261642456055
H 51.032161712646484 57.47175216674805 38.171424865722656
C 52.27806091308594 56.5775260925293 36.63101577758789
H 52.27001190185547 55.6890983581543 36.00128936767578
C 53.39588165283203 57.26423263549805 36.63059616088867
C 53.617774963378906 58.45943069458008 37.50785827636719
H 54.66780090332031 58.7360725402832 37.62355041503906
H 53.072853088378906 59.29767990112305 37.068695068359375
H 53.24456787109375 58.18678665161133 38.497222900390625
C 54.43260192871094 56.864139556884766 35.74140930175781
H 54.99687957763672 57.77595901489258 35.551387786865234
C 54.693328857421875 55.73996353149414 35.14791488647461
H 54.091796875 54.856971740722656 35.358642578125
C 55.8941650390625 55.569297790527344 34.39716720581055
H 56.524993896484375 56.45449447631836 34.463600158691406
C 56.363250732421875 54.533111572265625 33.719234466552734
C 55.648155212402344 53.277427673339844 33.75825119018555
H 54.56892395019531 53.42803955078125 33.687313079833984
H 55.89177703857422 52.67088317871094 32.883487701416016
H 56.0169677734375 52.69632339477539 34.606048583984375
C 57.658470153808594 54.417327880859375 33.03264617919922
H 57.735923767089844 53.53403854370117 32.40040969848633
C 58.75225067138672 55.19965744018555 33.15278244018555
H 58.59650421142578 56.11874771118164 33.71575164794922
C 60.072227478027344 55.00368881225586 32.56727981567383
C 60.711517333984375 53.839073181152344 32.34796142578125
C 60.17528533935547 52.44331359863281 32.430816650390625
H 59.573204040527344 52.465492248535156 33.34157180786133
H 59.482086181640625 52.225677490234375 31.615602493286133
H 60.84918212890625 51.595272064208984 32.56917953491211
C 62.16297149658203 53.73764419555664 31.898073196411133
H 62.19184112548828 53.39280700683594 30.86235237121582
H 62.59016418457031 52.86587142944336 32.398067474365234
C 62.91576385498047 55.0367317199707 32.01709747314453
H 63.949134826660156 55.01259994506836 31.664926528930664
H 63.0220947265625 55.31052780151367 33.06885528564453
C 62.052825927734375 56.17952346801758 31.442949295043945
H 62.69612121582031 57.059356689453125 31.375659942626953
H 61.76007080078125 55.95575714111328 30.414989471435547
C 60.77692413330078 56.35887145996094 32.31553268432617
C 61.11634063720703 57.094383239746094 33.60408401489258
H 61.64002227783203 56.39420700073242 34.25827407836914
H 61.830101013183594 57.90670394897461 33.451961517333984
H 60.22129821777344 57.52465057373047 34.058204650878906
C 60.03514099121094 57.40746307373047 31.489646911621094
H 60.735679626464844 58.22814178466797 31.32174301147461
H 59.73259735107422 57.0133056640625 30.517240524291992
H 59.15327453613281 57.71771240234375 32.05402755737305
