207
Triad, Carotenoid-Porphyrin-C60
C 42.89915084838867 34.295326232910156 45.80555725097656
C 44.32444381713867 39.328819274902344 49.575286865234375
C 42.722721099853516 37.74486541748047 49.87908172607422
C 42.24948501586914 35.464996337890625 49.15782928466797
C 46.41557693481445 39.84162139892578 48.45807647705078
C 45.06839370727539 40.090572357177734 48.655242919921875
C 46.213077545166016 37.9592170715332 50.036216735839844
C 44.299503326416016 35.95684051513672 50.357391357421875
C 44.80092239379883 33.618743896484375 46.70646667480469
C 46.91462326049805 38.66096878051758 49.04350280761719
C 42.68106460571289 34.08980178833008 47.19312286376953
C 46.98776626586914 38.5687141418457 45.07642364501953
C 46.60487747192383 39.986732482910156 47.080657958984375
C 46.52639389038086 36.28717041015625 44.32324981689453
C 46.83986282348633 34.652889251708984 46.01007843017578
C 46.22690963745117 35.01683044433594 44.86040496826172
C 47.93474197387695 37.91596221923828 46.960205078125
C 46.581966400146484 36.600120544433594 49.91777801513672
C 45.60154342651367 35.66375732421875 50.054176330566406
C 46.615230560302734 34.33647918701172 48.299461364746094
C 41.4354133605957 38.790618896484375 46.00366973876953
C 42.67745590209961 39.69035339355469 45.872413635253906
C 41.43253707885742 38.476444244384766 47.48838806152344
C 42.35702133178711 39.32351303100586 48.075233459472656
C 44.35989761352539 35.75934600830078 43.968406677246094
C 43.69536209106445 39.46554183959961 44.99578094482422
C 41.85300827026367 34.98731994628906 47.86846923828125
C 45.82014083862305 38.92462921142578 44.528411865234375
C 45.40102767944336 40.385066986083984 46.46239471435547
C 45.3387336730957 36.72964859008789 43.81683349609375
C 41.23142623901367 37.16933059692383 48.00664520263672
C 47.87568283081055 36.79630661010742 46.10015869140625
C 47.67599105834961 35.51737976074219 46.68226623535156
C 45.630863189697266 34.536048889160156 49.282798767089844
C 47.438472747802734 36.47332763671875 48.81742858886719
C 41.44462203979492 37.56656265258789 45.01570129394531
C 42.684505462646484 37.46662521362305 44.117034912109375
C 41.3972282409668 36.24783706665039 45.774024963378906
C 43.11265182495117 36.12552261352539 44.245887756347656
C 46.154598236083984 33.98924255371094 46.99214172363281
C 43.07804489135742 40.06068420410156 47.15788269042969
C 41.316959381103516 36.08760070800781 47.179100036621094
C 42.29560470581055 35.374271392822266 45.121734619140625
C 41.916812896728516 36.82080078125 49.1710205078125
C 44.93727493286133 34.670108795166016 44.64179992675781
C 43.70924758911133 38.41880798339844 44.09405517578125
C 45.035823822021484 39.83507537841797 45.236122131347656
C 42.95840072631836 39.048423767089844 49.297515869140625
C 44.44083786010742 40.44935989379883 47.427574157714844
C 47.53561019897461 35.35081100463867 48.01170349121094
C 45.043575286865234 38.043399810791016 43.843116760253906
C 44.21054458618164 33.94590377807617 45.51923370361328
C 44.89755630493164 38.27067947387695 50.32215118408203
C 43.92057418823242 37.30693435668945 50.34217834472656
C 43.47220230102539 35.0184326171875 49.73289489746094
C 43.86269760131836 33.73006057739258 47.760169982910156
C 47.36915969848633 39.014259338378906 46.34784698486328
C 47.38813400268555 37.172672271728516 44.90904235839844
C 44.28597640991211 34.13357925415039 49.026084899902344
C 47.666812896728516 37.738563537597656 48.30999755859375
C 40.141727447509766 39.570068359375 45.525238037109375
N 39.485904693603516 39.008304595947266 44.52698516845703
C 40.14414596557617 37.772491455078125 44.14491271972656
H 40.35271072387695 37.752994537353516 43.072166442871094
H 39.45305252075195 36.953102111816406 44.358543395996094
C 39.0111198425293 43.301902770996094 47.369300842285156
C 38.923580169677734 42.106903076171875 48.092323303222656
H 38.68247604370117 42.157405853271484 49.15104675292969
C 39.24846267700195 40.854434967041016 47.472801208496094
H 39.23661422729492 39.97178268432617 48.10711669921875
C 39.7087516784668 40.84126281738281 46.155799865722656
C 39.6347541809082 43.25955581665039 46.08287048339844
H 39.83670425415039 44.196163177490234 45.569496154785156
C 39.836124420166016 42.015628814697266 45.468650817871094
H 40.163333892822266 41.93029022216797 44.435585021972656
C 38.6071891784668 44.594661712646484 48.00611114501953
C 37.90925216674805 44.5015869140625 49.276939392089844
C 36.99247360229492 43.62114334106445 49.87663269042969
H 36.55373764038086 42.77810287475586 49.35316467285156
C 36.81978988647461 43.99186325073242 51.21466064453125
H 36.156497955322266 43.46042251586914 51.889076232910156
C 37.6258430480957 45.077022552490234 51.505760192871094
N 38.281002044677734 45.346858978271484 50.35063171386719
H 38.98142623901367 46.07103729248047 50.26641845703125
C 37.740047454833984 45.91305923461914 52.71156311035156
H 37.17851638793945 45.49275588989258 53.54460144042969
C 38.56198501586914 46.99196243286133 53.02495574951172
C 38.46183395385742 47.779945373535156 54.20093536376953
H 37.77187728881836 47.530616760253906 55.00032043457031
C 39.37393569946289 48.74156951904297 54.13243865966797
H 39.641597747802734 49.49882125854492 54.8619384765625
C 40.01694107055664 48.583309173583984 52.84880065917969
N 39.51631546020508 47.482086181640625 52.22620391845703
C 40.93037033081055 49.4015998840332 52.066505432128906
C 40.70942306518555 49.810829162597656 50.77545928955078
C 40.724849700927734 51.14239501953125 50.295310974121094
H 40.92509078979492 52.045127868652344 50.862945556640625
C 40.27382278442383 51.11135482788086 49.00495910644531
H 40.226314544677734 51.98276901245117 48.36028289794922
C 40.00728225708008 49.781593322753906 48.56702423095703
N 40.21830368041992 49.07362747192383 49.72785949707031
H 40.21815872192383 48.06326675415039 49.69194793701172
C 39.4347038269043 49.341270446777344 47.39257049560547
H 39.246700286865234 50.07919692993164 46.61408996582031
C 39.0445442199707 47.97662353515625 47.03291320800781
C 38.47105026245117 47.44171905517578 45.84375
H 38.3526725769043 47.86593246459961 44.85215759277344
C 38.2625846862793 46.11206817626953 46.09148406982422
H 37.85452651977539 45.49457931518555 45.298118591308594
C 38.74290084838867 45.819602966308594 47.33501434326172
N 39.17415237426758 46.91272735595703 47.897605895996094
C 45.04244613647461 49.7007942199707 53.56494140625
C 44.707462310791016 50.195560455322266 52.336753845214844
H 45.4672966003418 50.58732223510742 51.665374755859375
C 43.33601760864258 50.10879135131836 51.863258361816406
H 43.06766128540039 50.53154373168945 50.898468017578125
C 42.35209274291992 49.501373291015625 52.561851501464844
C 44.025630950927734 49.09292221069336 54.3037109375
H 44.246212005615234 48.747039794921875 55.310325622558594
C 42.65365219116211 49.00820541381836 53.857566833496094
H 41.94199752807617 48.58201599121094 54.56005096435547
N 46.352481842041016 49.68177032470703 53.999855041503906
H 46.69443893432617 50.63019561767578 53.959495544433594
C 47.02853012084961 48.627532958984375 54.50141906738281
O 46.61668014526367 47.513187408447266 54.55851745605469
C 48.38955307006836 48.93415451049805 54.94956970214844
C 49.13167953491211 49.923545837402344 54.401824951171875
H 48.68575668334961 50.48738479614258 53.586463928222656
C 50.44172286987305 50.20652770996094 54.822357177734375
C 50.93657302856445 49.55559158325195 55.95531463623047
H 51.917171478271484 49.75429916381836 56.38017272949219
C 50.186153411865234 48.5351676940918 56.51868438720703
H 50.60465621948242 48.10256576538086 57.423828125
C 48.9433479309082 48.17137908935547 55.95592498779297
H 48.44227981567383 47.334197998046875 56.43511962890625
C 51.205448150634766 51.20005416870117 54.115966796875
H 50.55329513549805 51.6859130859375 53.391700744628906
C 52.430240631103516 51.74723815917969 54.25004577636719
H 53.04910659790039 51.31099319458008 55.032745361328125
C 53.104923248291016 52.76144790649414 53.417388916015625
C 52.20895767211914 53.583534240722656 52.64122009277344
H 51.57280349731445 53.02996063232422 51.94744873046875
H 52.78140640258789 54.28230667114258 52.02763366699219
H 51.61759567260742 54.25728225708008 53.26476287841797
C 54.420284271240234 52.890403747558594 53.44243621826172
H 54.97954177856445 52.262935638427734 54.134849548339844
C 55.262447357177734 53.767337799072266 52.657691955566406
H 54.92135238647461 54.28302001953125 51.76122283935547
C 56.590877532958984 53.75455856323242 52.98212432861328
H 56.972782135009766 53.14059066772461 53.79644775390625
C 57.652889251708984 54.490257263183594 52.327392578125
C 59.074222564697266 54.207801818847656 52.677085876464844
H 59.637577056884766 53.96974182128906 51.77241516113281
H 59.613895416259766 55.0741081237793 53.065330505371094
H 59.232486724853516 53.459842681884766 53.456809997558594
C 57.40153121948242 55.412227630615234 51.394287109375
H 56.36484909057617 55.571266174316406 51.10118103027344
C 58.45643997192383 56.217342376708984 50.642982482910156
H 59.440486907958984 56.230201721191406 51.10924530029297
C 58.23188400268555 56.8956184387207 49.53528594970703
H 57.22417068481445 56.9224739074707 49.123313903808594
C 59.247005462646484 57.636226654052734 48.77674865722656
H 60.30245590209961 57.518367767333984 49.01770782470703
C 59.06313705444336 58.58230972290039 47.831871032714844
C 57.654850006103516 59.043678283691406 47.50677490234375
H 57.205928802490234 59.61991500854492 48.31848907470703
H 57.46513748168945 59.57360076904297 46.571006774902344
H 56.95624923706055 58.21038055419922 47.40662384033203
C 60.12080001831055 59.361724853515625 47.25035858154297
H 61.13846206665039 58.97421646118164 47.26158142089844
C 60.078548431396484 60.611061096191406 46.79827117919922
H 59.08132553100586 61.03415298461914 46.68666076660156
C 61.15934371948242 61.50564956665039 46.345664978027344
H 62.13058090209961 61.10306167602539 46.061866760253906
C 60.999752044677734 62.79991149902344 46.04103088378906
C 59.65766525268555 63.463722229003906 46.057106018066406
H 59.57017135620117 64.50777435302734 45.74925231933594
H 59.030765533447266 62.78293991088867 45.477447509765625
H 59.267093658447266 63.50896072387695 47.07586669921875
C 62.01279067993164 63.6781120300293 45.44593048095703
H 62.82100296020508 63.21257019042969 44.88380432128906
C 62.21176528930664 65.05300903320312 45.587738037109375
H 61.42435073852539 65.55177307128906 46.15087890625
C 63.15279006958008 65.94501495361328 44.96685028076172
C 64.50971984863281 65.78292846679688 44.88548278808594
C 65.2790756225586 64.62003326416016 45.54686737060547
H 64.6033935546875 64.0411148071289 46.17993927001953
H 65.76097106933594 63.9412956237793 44.84008026123047
H 65.92584228515625 65.06369018554688 46.30668640136719
C 65.47322082519531 66.79431915283203 44.33612823486328
H 66.3729476928711 66.34579467773438 43.90977478027344
H 65.87539672851562 67.38815307617188 45.159584045410156
C 64.7469482421875 67.69466400146484 43.258697509765625
H 64.26276397705078 67.14065551757812 42.4517822265625
H 65.43946838378906 68.3509521484375 42.727500915527344
C 63.61830520629883 68.26895904541016 44.018211364746094
H 64.01666259765625 68.7510757446289 44.91339111328125
H 63.11746597290039 69.0480728149414 43.43976593017578
C 62.508060455322266 67.22004699707031 44.393226623535156
C 61.50236129760742 67.98933410644531 45.287864685058594
H 61.27701187133789 68.99154663085938 44.917388916015625
H 60.51309585571289 67.54191589355469 45.40461730957031
H 61.88484573364258 68.03717041015625 46.3095703125
C 61.627323150634766 66.93932342529297 43.215232849121094
H 60.770931243896484 66.32545471191406 43.501983642578125
H 61.37430191040039 67.8260498046875 42.630279541015625
H 62.150455474853516 66.41007232666016 42.416053771972656
