207
Triad, Carotenoid-Porphyrin-C60
C 40.457618713378906 63.89849090576172 53.481895446777344
C 43.11876678466797 59.308624267578125 49.88828659057617
C 40.924217224121094 59.601234436035156 50.41948699951172
C 39.49418640136719 61.34461212158203 51.21088790893555
C 45.24333953857422 60.55052947998047 49.70696258544922
C 44.454246520996094 59.53491973876953 50.30825424194336
C 43.236732482910156 61.142417907714844 48.429107666015625
C 40.59095764160156 61.499168395996094 49.010780334472656
C 40.85655212402344 65.08324432373047 51.56411361694336
C 44.62705993652344 61.33662414550781 48.714603424072266
C 39.65177917480469 63.40613555908203 52.4763298034668
C 46.17902374267578 63.02485656738281 52.050987243652344
C 45.96026611328125 61.017173767089844 50.74700927734375
C 44.66752624511719 64.84556579589844 52.77800369262695
C 43.18836212158203 65.58802032470703 51.04835510253906
C 43.524070739746094 65.53469848632812 52.401817321777344
C 45.56366729736328 63.22943115234375 49.847293853759766
C 42.61371612548828 62.357330322265625 48.186500549316406
C 41.30517578125 62.553955078125 48.51651382446289
C 41.834442138671875 64.73143005371094 49.37728500366211
C 42.33668518066406 59.566993713378906 54.42431640625
C 43.775665283203125 59.574485778808594 53.90203857421875
C 41.55961608886719 59.26380157470703 53.14937973022461
C 42.44465637207031 58.78187561035156 52.1550407409668
C 43.141700744628906 64.28578186035156 54.28053283691406
C 44.7333984375 60.587989807128906 54.138275146484375
C 39.47418212890625 61.999664306640625 52.42140579223633
C 45.9254150390625 62.29975891113281 53.22121810913086
C 45.69883728027344 60.2796630859375 51.90275192260742
C 44.412567138671875 64.03246307373047 53.866432189941406
C 40.425819396972656 59.985107421875 52.69804763793945
C 45.22465515136719 64.43768310546875 50.466163635253906
C 44.062171936035156 65.07447052001953 50.08509826660156
C 40.91218566894531 63.72862243652344 49.11605453491211
C 43.54780578613281 63.33649444580078 48.46248245239258
C 41.87702178955078 60.85987854003906 55.159629821777344
C 42.9639892578125 61.9613037109375 55.137237548828125
C 40.78173065185547 61.61022186279297 54.446617126464844
C 42.362937927246094 63.21258544921875 54.80889892578125
C 41.87663269042969 65.39371490478516 50.63644027709961
C 43.731109619140625 59.03601837158203 52.59040451049805
C 40.05497741699219 61.144859313964844 53.39522171020508
C 41.0421142578125 63.02967834472656 54.402099609375
C 40.081443786621094 60.112892150878906 51.36904525756836
C 42.539390563964844 65.13030242919922 53.32662582397461
C 44.311546325683594 61.743255615234375 54.78740692138672
C 45.71247100830078 60.91759490966797 53.13312911987305
C 42.118690490722656 58.97373962402344 50.79795455932617
C 44.699188232421875 59.400970458984375 51.63860321044922
C 43.16960144042969 64.50628662109375 49.11396789550781
C 44.99800109863281 62.77702331542969 54.156219482421875
C 41.183074951171875 64.92308807373047 52.93024826049805
C 42.527366638183594 60.13506317138672 48.94986343383789
C 41.22630310058594 60.321250915527344 49.25436019897461
C 39.78199768066406 62.02790069580078 50.03155517578125
C 39.92943572998047 64.06591033935547 51.28361129760742
C 46.10462951660156 62.38298797607422 50.83773422241211
C 45.52379608154297 64.27593994140625 51.815677642822266
C 39.96044921875 63.42564392089844 50.054664611816406
C 44.761817932128906 62.71971130371094 48.80744171142578
C 42.18153381347656 58.48218536376953 55.457130432128906
N 41.700645446777344 58.89801025390625 56.57460021972656
C 41.49011993408203 60.398109436035156 56.56968688964844
H 42.163002014160156 60.77332305908203 57.344993591308594
H 40.425270080566406 60.492706298828125 56.797264099121094
C 43.84022521972656 54.466773986816406 55.0887451171875
C 42.58161926269531 54.76615905761719 54.48291778564453
H 41.93791961669922 54.009788513183594 54.04119110107422
C 42.06597137451172 56.1005859375 54.542579650878906
H 41.079444885253906 56.24992370605469 54.11126708984375
C 42.70661163330078 57.13257598876953 55.268592834472656
C 44.491493225097656 55.57756805419922 55.67925262451172
H 45.53727722167969 55.41426086425781 55.92670440673828
C 43.94324493408203 56.87852478027344 55.81340789794922
H 44.44337463378906 57.70472717285156 56.31224822998047
C 44.519081115722656 53.134864807128906 54.87725067138672
C 43.96826934814453 52.22241973876953 53.92224884033203
C 42.803436279296875 51.541168212890625 53.892539978027344
H 42.00736999511719 51.42560577392578 54.62065124511719
C 42.833595275878906 50.84362030029297 52.60116958618164
H 42.04706573486328 50.16642761230469 52.284942626953125
C 43.977577209472656 51.170448303222656 51.915653228759766
N 44.66322326660156 51.987152099609375 52.7824821472168
H 45.47685241699219 52.523460388183594 52.513240814208984
C 44.536651611328125 50.71910858154297 50.70619201660156
H 43.867889404296875 50.41766357421875 49.90132522583008
C 45.824851989746094 51.02845764160156 50.30523681640625
C 46.11968994140625 51.40007019042969 48.99073028564453
H 45.391075134277344 51.60308837890625 48.21282196044922
C 47.47462463378906 51.64872741699219 48.9632568359375
H 48.10517883300781 51.9813232421875 48.14532470703125
C 47.99806213378906 51.148284912109375 50.223751068115234
N 46.96376037597656 50.886322021484375 51.04069900512695
C 49.42863464355469 51.20977783203125 50.661685943603516
C 49.831764221191406 51.5645751953125 51.95389175415039
C 51.08708190917969 51.26233673095703 52.64445877075195
H 51.97740173339844 50.774627685546875 52.261436462402344
C 50.939903259277344 51.462608337402344 54.01744842529297
H 51.712074279785156 51.392860412597656 54.776466369628906
C 49.66626739501953 52.01899719238281 54.264488220214844
N 49.14268493652344 52.06121063232422 53.01377868652344
H 48.168792724609375 52.32490539550781 52.949581146240234
C 49.10839080810547 52.236106872558594 55.434410095214844
H 49.73120880126953 52.05110168457031 56.30836486816406
C 47.753814697265625 52.68248748779297 55.77344512939453
C 47.20426940917969 52.84332275390625 57.076446533203125
H 47.769447326660156 52.78269958496094 58.000633239746094
C 45.88256072998047 53.06779479980469 56.882179260253906
H 45.14543914794922 53.30419158935547 57.642433166503906
C 45.71711730957031 53.01264190673828 55.48687744140625
N 46.825294494628906 52.723297119140625 54.83540344238281
C 52.31443786621094 50.550498962402344 47.48531723022461
C 52.72484588623047 51.18013000488281 48.6440544128418
H 53.77156066894531 51.46238708496094 48.723365783691406
C 51.79242706298828 51.474639892578125 49.687278747558594
H 52.14702606201172 51.94969177246094 50.598411560058594
C 50.464378356933594 50.91992950439453 49.59303665161133
C 51.054656982421875 49.9898681640625 47.420352935791016
H 50.78753662109375 49.536415100097656 46.46924591064453
C 50.101287841796875 50.22080993652344 48.405311584472656
H 49.094932556152344 49.83202362060547 48.27241516113281
N 53.20899963378906 50.23993682861328 46.43562698364258
H 53.447776794433594 49.262725830078125 46.357383728027344
C 53.77388000488281 51.123374938964844 45.53618240356445
O 53.7020263671875 52.30577087402344 45.658180236816406
C 54.660423278808594 50.45630645751953 44.511253356933594
C 54.60009765625 49.06505584716797 44.33671188354492
H 53.914405822753906 48.44029998779297 44.90334701538086
C 55.32756042480469 48.44071960449219 43.330970764160156
C 56.217124938964844 49.191322326660156 42.57966613769531
H 56.733612060546875 48.69398498535156 41.7626838684082
C 56.46135711669922 50.572998046875 42.79316329956055
H 57.12718200683594 51.103050231933594 42.1169319152832
C 55.693931579589844 51.11851501464844 43.83891677856445
H 55.81432342529297 52.18830108642578 43.98936462402344
C 55.24298858642578 47.000858306884766 43.089988708496094
H 54.46650695800781 46.56023025512695 43.71356201171875
C 55.932464599609375 46.18558883666992 42.22379684448242
H 56.76905059814453 46.5384635925293 41.622528076171875
C 55.712074279785156 44.71885681152344 42.19843292236328
C 56.31109619140625 44.04071044921875 41.026912689208984
H 56.697357177734375 44.74843978881836 40.290443420410156
H 55.499717712402344 43.450050354003906 40.59650421142578
H 57.06195068359375 43.33867263793945 41.39545440673828
C 55.005470275878906 44.023048400878906 43.141326904296875
H 54.73674774169922 44.5655632019043 44.046531677246094
C 54.80397033691406 42.58563232421875 43.192787170410156
H 55.070526123046875 42.05942153930664 42.27737808227539
C 54.415122985839844 41.83103561401367 44.243064880371094
H 54.266143798828125 42.388023376464844 45.16691207885742
C 54.33604431152344 40.3813362121582 44.35993576049805
C 53.945587158203125 39.88881301879883 45.73699951171875
H 53.5439453125 40.687808990478516 46.36369323730469
H 53.09757995605469 39.201168060302734 45.71481704711914
H 54.75201416015625 39.42948532104492 46.312461853027344
C 54.4974365234375 39.522422790527344 43.410888671875
H 54.721527099609375 39.928863525390625 42.425743103027344
C 54.528099060058594 38.098079681396484 43.38515090942383
H 54.454063415527344 37.49073791503906 44.28602600097656
C 54.332374572753906 37.23137664794922 42.32463455200195
H 54.17029571533203 37.72170639038086 41.36587142944336
C 54.39076232910156 35.724090576171875 42.27204132080078
H 54.52843475341797 35.190452575683594 43.2113037109375
C 54.26332092285156 34.866180419921875 41.19512939453125
C 53.90447235107422 35.44443130493164 39.91490173339844
H 54.1131591796875 34.68415069580078 39.15933609008789
H 52.84761047363281 35.719234466552734 39.91593933105469
H 54.501983642578125 36.34138870239258 39.73909378051758
C 54.35723114013672 33.45625305175781 41.395851135253906
H 54.639007568359375 32.803348541259766 40.571083068847656
C 54.105224609375 32.70697784423828 42.47971725463867
H 53.94580078125 33.175655364990234 43.44969177246094
C 54.11822509765625 31.21651840209961 42.52045440673828
H 53.88603210449219 30.646949768066406 41.621788024902344
C 54.226959228515625 30.405071258544922 43.617454528808594
C 54.53907012939453 30.91763687133789 44.97708511352539
H 53.657066345214844 31.057861328125 45.605464935302734
H 55.24768829345703 30.210941314697266 45.41400909423828
H 55.16925811767578 31.802337646484375 44.864681243896484
C 54.169403076171875 28.953777313232422 43.62929153442383
H 54.33467102050781 28.510234832763672 42.648536682128906
C 53.89326477050781 28.118366241455078 44.65200424194336
H 53.655677795410156 28.544635772705078 45.62554168701172
C 53.70503234863281 26.67535400390625 44.61119842529297
C 54.643463134765625 25.836132049560547 44.038936614990234
C 55.924644470214844 26.267845153808594 43.303951263427734
H 55.76696014404297 26.280982971191406 42.223480224609375
H 56.22595977783203 27.23037338256836 43.722537994384766
H 56.77704620361328 25.620838165283203 43.52131652832031
C 54.591163635253906 24.348384857177734 43.886085510253906
H 55.23109436035156 23.98092269897461 44.69102478027344
H 55.04718017578125 23.960399627685547 42.97285842895508
C 53.12718963623047 23.84093475341797 44.140628814697266
H 53.144996643066406 22.753036499023438 44.233489990234375
H 52.50159454345703 24.120750427246094 43.29045486450195
C 52.63567352294922 24.616371154785156 45.45541000366211
H 51.65620422363281 24.226177215576172 45.73974609375
H 53.33642578125 24.480575561523438 46.28183364868164
C 52.46460723876953 26.121540069580078 45.28921890258789
C 51.14619445800781 26.322566986083984 44.49739456176758
H 51.05474853515625 27.39022445678711 44.28714370727539
H 51.32292938232422 25.90660858154297 43.50331115722656
H 50.304344177246094 25.77083969116211 44.9208869934082
C 52.1175537109375 26.6807861328125 46.61760711669922
H 51.432373046875 26.101802825927734 47.24032211303711
H 52.957977294921875 26.80603790283203 47.30351257324219
H 51.64863586425781 27.657806396484375 46.48341751098633
