207
Triad, Carotenoid-Porphyrin-C60
C 63.306114196777344 52.11151885986328 37.06234359741211
C 59.20539093017578 47.15565490722656 36.14930725097656
C 58.907997131347656 49.42026138305664 35.68914794921875
C 60.345115661621094 51.38190841674805 35.33283233642578
C 61.01959991455078 45.69176483154297 36.495967864990234
C 59.88787841796875 46.27561569213867 37.0174560546875
C 60.78839111328125 46.7818489074707 34.38389205932617
C 60.52275085449219 49.58982467651367 33.838539123535156
C 64.27254486083984 51.17327880859375 35.216651916503906
C 61.482948303222656 45.935340881347656 35.187957763671875
C 62.457557678222656 52.22456741333008 35.969058990478516
C 64.02139282226562 46.43074035644531 38.19647979736328
C 61.905921936035156 45.49443435668945 37.56208419799805
C 65.4413070678711 48.325130462646484 37.875282287597656
C 65.40917205810547 49.04238510131836 35.60114288330078
C 65.6225814819336 49.33834457397461 36.91751480102539
C 63.781776428222656 45.890201568603516 36.0736198425293
C 61.77295684814453 47.508140563964844 33.567420959472656
C 61.649253845214844 48.873504638671875 33.395973205566406
C 63.97834014892578 49.24164962768555 33.8359375
C 60.01188659667969 49.98847961425781 39.7990837097168
C 60.37715148925781 48.46611785888672 39.79568099975586
C 59.280494689941406 50.01192092895508 38.44989776611328
C 59.036354064941406 48.699642181396484 38.01424789428711
C 64.61227416992188 50.277225494384766 38.70048522949219
C 61.709068298339844 47.97038650512695 40.033451080322266
C 61.108055114746094 52.075950622558594 36.18368148803711
C 63.47412872314453 46.922210693359375 39.347782135009766
C 61.32782745361328 46.060020446777344 38.650611877441406
C 64.84123229980469 48.93275833129883 38.96073532104492
C 59.513343811035156 50.98008728027344 37.420143127441406
C 64.81797790527344 46.809783935546875 36.16780471801758
C 65.02281188964844 47.76373291015625 35.21609115600586
C 62.75586700439453 49.6993408203125 33.47661209106445
C 63.035980224609375 47.06024169921875 34.02891540527344
C 61.18805694580078 50.9365119934082 39.852848052978516
C 62.525978088378906 50.251773834228516 39.93246078491211
C 61.48338317871094 51.82631301879883 38.62236785888672
C 63.43389892578125 50.9083366394043 39.10810852050781
C 64.76953887939453 49.968414306640625 34.73210144042969
C 59.64641571044922 47.81405258178711 38.850643157958984
C 60.566566467285156 51.8785285949707 37.49134826660156
C 62.861610412597656 51.913455963134766 38.3233528137207
C 59.367340087890625 50.6754150390625 36.06644058227539
C 65.12686157226562 50.56480407714844 37.443397521972656
C 62.72071075439453 48.86642837524414 40.13438034057617
C 62.121177673339844 46.78802490234375 39.535465240478516
C 58.82292175292969 48.40423583984375 36.675811767578125
C 60.091163635253906 46.565155029296875 38.33736038208008
C 64.14624786376953 47.91569519042969 34.11354446411133
C 63.85224151611328 48.205528259277344 39.765743255615234
C 64.46995544433594 51.4474983215332 36.6478157043457
C 59.679115295410156 47.48753356933594 34.84351348876953
C 59.49943542480469 48.85820007324219 34.54214859008789
C 60.92829132080078 50.79631042480469 34.204307556152344
C 63.02754211425781 51.69404983520508 34.82811737060547
C 63.25714111328125 45.73299026489258 37.33528137207031
C 65.01983642578125 47.076499938964844 37.508243560791016
C 62.29747772216797 50.907554626464844 33.952423095703125
C 62.86299133300781 46.030845642089844 34.968299865722656
C 59.22130584716797 50.264488220214844 41.03742599487305
N 59.63163757324219 51.28112030029297 41.6890983581543
C 60.9183349609375 51.76806640625 41.192378997802734
H 61.77021026611328 51.7279167175293 41.87601852416992
H 60.87171173095703 52.84678649902344 41.02255630493164
C 55.29829406738281 48.56284713745117 42.02999496459961
C 56.512245178222656 48.159271240234375 42.691097259521484
H 56.466636657714844 47.324127197265625 43.385379791259766
C 57.72589111328125 48.607948303222656 42.301212310791016
H 58.64592742919922 48.24864959716797 42.75509262084961
C 57.91706848144531 49.66963195800781 41.4091911315918
C 55.48944854736328 49.570369720458984 41.06843185424805
H 54.663185119628906 49.934043884277344 40.462955474853516
C 56.72173309326172 50.12519454956055 40.78580093383789
H 56.89313507080078 50.74375915527344 39.90854263305664
C 53.942298889160156 47.965877532958984 42.276615142822266
C 53.731101989746094 47.15096664428711 43.41757583618164
C 54.37251281738281 45.99214172363281 43.793338775634766
H 55.10087585449219 45.46649932861328 43.18473434448242
C 53.72997283935547 45.43442916870117 44.89516830444336
H 54.070716857910156 44.51978302001953 45.3690299987793
C 52.69267272949219 46.27213668823242 45.2072639465332
N 52.747161865234375 47.286521911621094 44.30356979370117
H 51.94496154785156 47.889892578125 44.182979583740234
C 51.75775146484375 46.27590560913086 46.296024322509766
H 51.93145751953125 45.419647216796875 46.94607162475586
C 50.58411407470703 46.96763610839844 46.42304611206055
C 49.530487060546875 46.41517639160156 47.25974655151367
H 49.55577087402344 45.543514251708984 47.905338287353516
C 48.553077697753906 47.298736572265625 47.17625045776367
H 47.54417419433594 47.22336196899414 47.5682487487793
C 48.95991516113281 48.3477897644043 46.23727798461914
N 50.19268798828125 48.09746170043945 45.76401901245117
C 48.26654052734375 49.53154754638672 45.732967376708984
C 48.15538024902344 49.913482666015625 44.35055923461914
C 46.98503875732422 50.133460998535156 43.54141616821289
H 46.00922393798828 50.21300506591797 44.0090446472168
C 47.36670684814453 50.174110412597656 42.221012115478516
H 46.68750762939453 50.24490737915039 41.377864837646484
C 48.78118133544922 49.747222900390625 42.10417556762695
N 49.10132598876953 49.713985443115234 43.381343841552734
H 50.08290100097656 49.59520721435547 43.59233474731445
C 49.49633026123047 49.42182922363281 40.98323440551758
H 48.897186279296875 49.48319625854492 40.07594680786133
C 50.897789001464844 48.94839859008789 40.831668853759766
C 51.66033935546875 48.40164566040039 39.68266677856445
H 51.31645202636719 48.17001724243164 38.68000793457031
C 52.84898376464844 47.985450744628906 40.19583511352539
H 53.63689422607422 47.409385681152344 39.72194290161133
C 52.87800598144531 48.32561111450195 41.484981536865234
N 51.769065856933594 48.94576644897461 41.87234878540039
C 46.961181640625 52.33772659301758 48.74380874633789
C 46.750885009765625 52.617435455322266 47.40946578979492
H 46.1300048828125 53.45880889892578 47.11252975463867
C 47.23717498779297 51.75859832763672 46.43954849243164
H 47.092262268066406 52.0679931640625 45.40763473510742
C 47.902793884277344 50.55529022216797 46.821231842041016
C 47.68902587890625 51.21243667602539 49.1612434387207
H 47.879966735839844 51.20188903808594 50.23128890991211
C 48.159698486328125 50.3448600769043 48.18545150756836
H 48.59461212158203 49.44702911376953 48.61710739135742
N 46.41661071777344 53.17724609375 49.77066421508789
H 46.234466552734375 52.719886779785156 50.65141677856445
C 46.34034729003906 54.494564056396484 49.82057571411133
O 46.75010681152344 55.209415435791016 48.951358795166016
C 45.961585998535156 55.082271575927734 51.1720085144043
C 44.89039611816406 54.54094696044922 51.8009147644043
H 44.198570251464844 53.83681869506836 51.34577560424805
C 44.502410888671875 54.96012496948242 53.11025619506836
C 45.14757537841797 56.0951042175293 53.61788558959961
H 44.77983093261719 56.47504806518555 54.56760787963867
C 46.27989196777344 56.678794860839844 52.93989944458008
H 46.853797912597656 57.47061538696289 53.41447067260742
C 46.68437194824219 56.12656021118164 51.76935958862305
H 47.612030029296875 56.46318054199219 51.31362533569336
C 43.378623962402344 54.259647369384766 53.8390998840332
H 42.994232177734375 53.46442413330078 53.202091217041016
C 42.77954864501953 54.47218322753906 54.98551559448242
H 43.239990234375 55.196109771728516 55.65623092651367
C 41.589080810546875 53.74874496459961 55.61195755004883
C 40.71251678466797 53.0086669921875 54.62289810180664
H 40.917911529541016 53.17413330078125 53.563228607177734
H 39.70180130004883 53.36756896972656 54.82809829711914
H 40.714317321777344 51.93616485595703 54.82832717895508
C 41.28740692138672 53.871803283691406 56.91995620727539
H 41.99402618408203 54.477542877197266 57.48537063598633
C 40.227752685546875 53.10042953491211 57.648380279541016
H 39.780235290527344 52.263671875 57.114070892333984
C 39.884132385253906 53.404052734375 58.90047836303711
H 40.37999725341797 54.28390121459961 59.307796478271484
C 38.953575134277344 52.70002746582031 59.72153091430664
C 38.80663299560547 53.30713653564453 61.04423141479492
H 37.83393859863281 53.77493667602539 61.21003341674805
H 38.98630142211914 52.67550277709961 61.91671371459961
H 39.59968948364258 54.04866027832031 61.1611213684082
C 38.21721267700195 51.62068557739258 59.42049026489258
H 38.334659576416016 51.327945709228516 58.378170013427734
C 37.27617263793945 50.8184928894043 60.2364387512207
H 36.71343231201172 51.32027816772461 61.022220611572266
C 36.95724868774414 49.53303146362305 59.9820671081543
H 37.468894958496094 49.03841018676758 59.15775680541992
C 36.10958480834961 48.6175422668457 60.71883010864258
H 35.75592041015625 48.92228317260742 61.702693939208984
C 35.699249267578125 47.43455123901367 60.22673416137695
C 36.20920181274414 46.93259048461914 58.92351150512695
H 36.03718185424805 45.856529235839844 58.85313034057617
H 35.849300384521484 47.49652099609375 58.060428619384766
H 37.2994270324707 46.894412994384766 58.97274398803711
C 34.9104118347168 46.4619026184082 60.97542190551758
H 34.567787170410156 45.56086730957031 60.46879959106445
C 34.64947509765625 46.45368957519531 62.346744537353516
H 35.057559967041016 47.32088088989258 62.863826751708984
C 33.971309661865234 45.407081604003906 63.0422477722168
H 33.7267951965332 44.58769607543945 62.36790084838867
C 33.53644943237305 45.16718292236328 64.29150390625
C 33.88594436645508 46.18638610839844 65.29270935058594
H 33.20341491699219 47.03569412231445 65.21990203857422
H 33.91228485107422 45.89546585083008 66.34490966796875
H 34.939090728759766 46.465328216552734 65.21829986572266
C 32.834537506103516 43.99885940551758 64.73854064941406
H 33.3327522277832 43.0947151184082 64.39179229736328
C 31.906105041503906 43.8338508605957 65.7417221069336
H 31.60232162475586 44.71731948852539 66.30130004882812
C 31.179931640625 42.52224349975586 65.9865493774414
C 30.371829986572266 41.94089126586914 65.03601837158203
C 30.085613250732422 42.640872955322266 63.69124221801758
H 30.21239471435547 43.72393798828125 63.74911117553711
H 30.650142669677734 42.06949234008789 62.95145034790039
H 29.02948760986328 42.490203857421875 63.45809555053711
C 29.63776397705078 40.60188293457031 65.16093444824219
H 29.553844451904297 40.040775299072266 64.22789001464844
H 28.630023956298828 40.81908416748047 65.52115631103516
C 30.23801040649414 39.71204376220703 66.23342895507812
H 31.180156707763672 39.285499572753906 65.88287353515625
H 29.675434112548828 38.788509368896484 66.38525390625
C 30.38817596435547 40.573692321777344 67.53369140625
H 29.407066345214844 40.98225402832031 67.78462982177734
H 30.776012420654297 39.99668884277344 68.37577819824219
C 31.36772918701172 41.81109619140625 67.35807800292969
C 31.254459381103516 42.71182632446289 68.56307220458984
H 31.843551635742188 43.62958526611328 68.50695037841797
H 30.258872985839844 43.1533088684082 68.64281463623047
H 31.409893035888672 42.253841400146484 69.54212951660156
C 32.80241775512695 41.29017639160156 67.60009002685547
H 33.06481170654297 40.50653076171875 66.88628387451172
H 33.485416412353516 42.10124588012695 67.33905029296875
H 33.036502838134766 40.917354583740234 68.59941864013672
