207
Triad, Carotenoid-Porphyrin-C60
C 62.901573181152344 53.63504409790039 58.664268493652344
C 58.88499450683594 49.428836822509766 55.85111618041992
C 60.602272033691406 50.58076095581055 54.99421691894531
C 62.583412170410156 51.67152786254883 55.58761978149414
C 58.060791015625 48.772586822509766 58.04945755004883
C 57.966949462890625 49.53817367553711 56.93805694580078
C 60.137168884277344 47.98416519165039 57.229286193847656
C 62.27601623535156 49.258182525634766 56.09345626831055
C 63.75048828125 51.64303207397461 59.538726806640625
C 59.183326721191406 48.06588363647461 58.24854278564453
C 63.32014465332031 52.811336517333984 57.6026725769043
C 58.381874084472656 50.7425651550293 61.00053787231445
C 57.49418640136719 49.53126907348633 59.095428466796875
C 60.37150573730469 51.8133659362793 61.77709197998047
C 62.30744171142578 50.55753707885742 61.13923645019531
C 61.671104431152344 51.70200729370117 61.489566802978516
C 59.28668212890625 48.75863265991211 60.53739929199219
C 61.38825988769531 47.93258285522461 57.8916130065918
C 62.47431182861328 48.594181060791016 57.29602813720703
C 63.13304138183594 49.2993049621582 59.45524978637695
C 58.657508850097656 54.03036117553711 56.46615219116211
C 57.79881286621094 53.06698226928711 57.24125671386719
C 59.368568420410156 53.044437408447266 55.62674331665039
C 58.644859313964844 51.821224212646484 55.565101623535156
C 61.008392333984375 53.6960563659668 60.68077850341797
C 57.62969970703125 53.1075553894043 58.641178131103516
C 62.73577880859375 52.78850173950195 56.35896301269531
C 57.91448211669922 51.94070816040039 60.50792694091797
C 57.03070831298828 50.762271881103516 58.60524368286133
C 59.93889617919922 53.05429458618164 61.22353744506836
C 60.72467041015625 52.9521369934082 55.37138366699219
C 60.17195129394531 49.474178314208984 61.272369384765625
C 61.564903259277344 49.34653854370117 61.07400131225586
C 63.40284729003906 49.28349685668945 58.06800842285156
C 61.20043182373047 47.89151382446289 59.29597091674805
C 59.66594696044922 54.83687973022461 57.33394241333008
C 59.560333251953125 54.595333099365234 58.89238357543945
C 61.159698486328125 54.43584060668945 57.18577194213867
C 60.80731964111328 54.42325973510742 59.475341796875
C 63.305091857910156 50.491825103759766 60.19050979614258
C 57.70177459716797 51.83478927612305 56.590660095214844
C 61.64238739013672 53.613521575927734 56.161006927490234
C 61.775611877441406 54.394290924072266 58.443973541259766
C 61.332313537597656 51.74235153198242 54.997154235839844
C 62.094757080078125 52.86246871948242 60.83284378051758
C 58.51262664794922 53.79579544067383 59.38603591918945
C 57.23335266113281 51.97745895385742 59.2857666015625
C 59.24651336669922 50.63169479370117 55.30563735961914
C 57.320655822753906 50.71467971801758 57.258060455322266
C 62.07964324951172 48.58603286743164 60.07270050048828
C 58.685340881347656 53.111331939697266 60.591487884521484
C 63.114906311035156 52.86940383911133 59.85945129394531
C 59.94890594482422 48.6198616027832 55.99214172363281
C 61.027435302734375 49.329219818115234 55.5155029296875
C 63.024024963378906 50.4443244934082 56.195526123046875
C 63.92176055908203 51.65898513793945 58.12701416015625
C 58.181854248046875 49.55105209350586 60.371212005615234
C 59.56261444091797 50.65607833862305 61.653236389160156
C 63.761375427246094 50.46854019165039 57.39546585083008
C 59.804443359375 47.94722366333008 59.53266525268555
C 57.739341735839844 55.0826301574707 55.829288482666016
N 58.079490661621094 56.27167892456055 56.16099548339844
C 59.37294006347656 56.3169059753418 56.98456573486328
H 59.23118591308594 56.93917465209961 57.871883392333984
H 60.17378234863281 56.798641204833984 56.417789459228516
C 54.10392761230469 54.29965591430664 53.702919006347656
C 54.22840881347656 55.340206146240234 54.670291900634766
H 53.36668395996094 56.00022506713867 54.61214828491211
C 55.33216094970703 55.64076614379883 55.43007278442383
H 55.28861999511719 56.48282241821289 56.116092681884766
C 56.477760314941406 54.89944839477539 55.12777328491211
C 55.34710693359375 53.7504997253418 53.36299514770508
H 55.511253356933594 53.08712387084961 52.51768112182617
C 56.45555877685547 53.96664047241211 54.16203308105469
H 57.42620849609375 53.53281784057617 53.93574905395508
C 52.83827209472656 53.99055862426758 52.98320007324219
C 51.58526611328125 54.788387298583984 53.36508560180664
C 51.003780364990234 54.8581428527832 54.625282287597656
H 51.37250900268555 54.42806625366211 55.55064392089844
C 49.858558654785156 55.681705474853516 54.49250793457031
H 49.08145523071289 55.820316314697266 55.23690414428711
C 49.73811340332031 56.08426284790039 53.20064163208008
N 50.91547775268555 55.716426849365234 52.66157913208008
H 51.07510757446289 55.84029006958008 51.67097473144531
C 48.83417892456055 56.91726303100586 52.53291702270508
H 47.911991119384766 57.267147064208984 52.99452590942383
C 48.69707489013672 56.92012405395508 51.12120819091797
C 48.53214645385742 58.0771598815918 50.362220764160156
H 48.585121154785156 59.08393478393555 50.76323318481445
C 48.58012771606445 57.67977523803711 49.022525787353516
H 48.46995162963867 58.3003044128418 48.13932800292969
C 48.65142822265625 56.191776275634766 49.01680374145508
N 48.71366500854492 55.78055191040039 50.33253479003906
C 48.561641693115234 55.3195915222168 47.842132568359375
C 49.518611907958984 54.452945709228516 47.44042205810547
C 50.05344772338867 54.05472183227539 46.16817855834961
H 49.8018684387207 54.385746002197266 45.16600036621094
C 51.03031921386719 53.12553787231445 46.35441207885742
H 51.409603118896484 52.464046478271484 45.5825309753418
C 51.299293518066406 53.013423919677734 47.80925369262695
N 50.4044075012207 53.89322280883789 48.241783142089844
H 50.324520111083984 54.04501724243164 49.23812484741211
C 52.20048522949219 52.27439498901367 48.54723358154297
H 52.67396545410156 51.50422286987305 47.94013595581055
C 52.52080535888672 52.33695602416992 49.94817352294922
C 53.376426696777344 51.42545700073242 50.72624206542969
H 53.780174255371094 50.468990325927734 50.41098403930664
C 53.44872283935547 51.98725509643555 51.97196960449219
H 53.79662322998047 51.57619094848633 52.91389465332031
C 52.797210693359375 53.1994743347168 51.889015197753906
N 52.23722839355469 53.36445236206055 50.70886993408203
C 44.84927749633789 55.28998947143555 45.53251647949219
C 45.90776824951172 54.372928619384766 45.28209686279297
H 45.780338287353516 53.804805755615234 44.36418533325195
C 47.08723831176758 54.2600212097168 46.07257843017578
H 47.87493896484375 53.54719924926758 45.842411041259766
C 47.22272872924805 55.19558334350586 47.122310638427734
C 44.950660705566406 56.04121017456055 46.73876953125
H 44.12141799926758 56.57332229614258 47.1978874206543
C 46.09421920776367 55.97659683227539 47.48426055908203
H 46.21387481689453 56.49727249145508 48.43091583251953
N 43.670101165771484 55.16713333129883 44.80452346801758
H 43.7156982421875 54.42238235473633 44.125301361083984
C 42.65311813354492 56.12033462524414 44.7651252746582
O 42.7999267578125 57.201717376708984 45.31120681762695
C 41.36940383911133 55.7581672668457 44.065853118896484
C 40.9870719909668 54.41933059692383 43.83115005493164
H 41.60396194458008 53.66658401489258 44.31528854370117
C 39.87897872924805 54.12148666381836 43.06196212768555
C 39.06588363647461 55.11296463012695 42.616600036621094
H 38.08613967895508 54.78934097290039 42.27463912963867
C 39.39698028564453 56.464603424072266 42.7847900390625
H 38.704593658447266 57.25846481323242 42.51654052734375
C 40.60480880737305 56.73496627807617 43.470890045166016
H 40.86665344238281 57.77348709106445 43.656593322753906
C 39.568172454833984 52.714664459228516 42.86128234863281
H 40.32025146484375 52.117374420166016 43.374637603759766
C 38.55465316772461 52.09666061401367 42.235137939453125
H 37.76435470581055 52.717472076416016 41.815677642822266
C 38.32465362548828 50.64607620239258 42.32704162597656
C 38.91267013549805 49.98087692260742 43.498470306396484
H 38.47579574584961 49.00089645385742 43.7015380859375
H 38.85167694091797 50.59255599975586 44.40102005004883
H 39.942359924316406 49.741153717041016 43.22509002685547
C 37.62860107421875 50.057125091552734 41.368160247802734
H 37.16041946411133 50.66404342651367 40.59461212158203
C 37.35871505737305 48.65800857543945 41.19763946533203
H 37.68229675292969 47.91115951538086 41.9211311340332
C 36.80213165283203 48.11818313598633 40.107513427734375
H 36.575801849365234 48.82416915893555 39.30984115600586
C 36.70389938354492 46.70952224731445 39.772369384765625
C 35.69892120361328 46.38499069213867 38.74797821044922
H 34.79730224609375 45.94282150268555 39.17697525024414
H 35.34867477416992 47.26469802856445 38.204017639160156
H 35.94026184082031 45.57060623168945 38.06167221069336
C 37.32304382324219 45.65731430053711 40.35154724121094
H 38.1986083984375 45.97612380981445 40.9151611328125
C 37.09515380859375 44.2278938293457 40.211639404296875
H 36.327598571777344 43.98442459106445 39.478492736816406
C 37.71525573730469 43.28605270385742 40.96471405029297
H 38.424163818359375 43.57365036010742 41.7397346496582
C 37.573646545410156 41.86928939819336 40.664215087890625
H 36.81850051879883 41.62740707397461 39.917781829833984
C 38.122501373291016 40.86671829223633 41.319854736328125
C 39.063846588134766 41.05695724487305 42.50220489501953
H 38.810150146484375 41.97089767456055 43.0433235168457
H 39.12848663330078 40.26967239379883 43.25617218017578
H 40.06536865234375 41.1293830871582 42.07304382324219
C 37.92063903808594 39.49739456176758 40.93819808959961
H 38.29133605957031 38.787960052490234 41.67658615112305
C 37.52229690551758 38.94412612915039 39.79328155517578
H 37.0706672668457 39.58976364135742 39.04154586791992
C 37.41889953613281 37.50568771362305 39.53706359863281
H 38.04582977294922 36.924129486083984 40.21135330200195
C 36.8958854675293 36.96541213989258 38.46847152709961
C 35.938350677490234 37.69809341430664 37.55317306518555
H 36.485694885253906 38.1391716003418 36.71751022338867
H 35.193450927734375 36.99216842651367 37.18000411987305
H 35.33142852783203 38.373348236083984 38.159915924072266
C 37.0637092590332 35.60921096801758 38.0966796875
H 36.1252326965332 35.082332611083984 37.93061065673828
C 38.265350341796875 34.98598861694336 38.09749984741211
H 39.111602783203125 35.60330581665039 38.395328521728516
C 38.619449615478516 33.5710563659668 37.90452575683594
C 37.96905517578125 32.6435661315918 37.107913970947266
C 36.77601623535156 32.747005462646484 36.22016143798828
H 36.57453155517578 33.8063850402832 36.048179626464844
H 36.80186462402344 32.28159713745117 35.23263931274414
H 35.914825439453125 32.350772857666016 36.76220703125
C 38.47763442993164 31.159029006958008 37.0191650390625
H 39.126747131347656 31.139863967895508 36.141239166259766
H 37.643333435058594 30.48734474182129 36.80648422241211
C 39.22663116455078 30.678133010864258 38.24702072143555
H 39.639461517333984 29.668962478637695 38.30715560913086
H 38.601741790771484 30.64934730529785 39.14208984375
C 40.36684036254883 31.759225845336914 38.40229415893555
H 41.12742233276367 31.4620304107666 39.12731170654297
H 40.874324798583984 31.734529495239258 37.435691833496094
C 39.8752555847168 33.213626861572266 38.699989318847656
C 39.67193603515625 33.34394454956055 40.234859466552734
H 39.56435775756836 34.41049575805664 40.443092346191406
H 38.72896957397461 32.93863296508789 40.60769271850586
H 40.50403594970703 32.99275588989258 40.84865188598633
C 41.18570327758789 34.0733757019043 38.496788024902344
H 41.96650695800781 33.50886154174805 39.0107307434082
H 41.35524368286133 34.19954299926758 37.42543411254883
H 41.20036315917969 35.11149215698242 38.835269927978516
