207
Triad, Carotenoid-Porphyrin-C60
C 32.36190414428711 50.146976470947266 55.922977447509766
C 35.30494689941406 55.9122428894043 56.123470306396484
C 33.81117630004883 55.02872085571289 54.63913345336914
C 32.147857666015625 53.37129592895508 54.49026107788086
C 35.946781158447266 55.418025970458984 58.430389404296875
C 36.318023681640625 55.51803970336914 57.06995391845703
C 33.69077682495117 56.151859283447266 57.97567367553711
C 31.81717300415039 55.19729995727539 56.11178207397461
C 31.056079864501953 51.02350997924805 57.534114837646484
C 34.717899322509766 55.74361801147461 58.875858306884766
C 31.679847717285156 51.266395568847656 55.37510681152344
C 36.20137023925781 52.17958450317383 59.984249114990234
C 36.606201171875 54.355106353759766 59.02562713623047
C 34.44280242919922 50.43769073486328 59.71131134033203
C 32.152591705322266 51.38916015625 59.76655197143555
C 33.07947540283203 50.322200775146484 59.39912414550781
C 34.76533508300781 53.82475662231445 60.405521392822266
C 32.521697998046875 55.5801887512207 58.4101448059082
C 31.583730697631836 55.08772659301758 57.508853912353516
C 31.117225646972656 53.15327072143555 58.871856689453125
C 36.54880142211914 51.76056671142578 54.34761047363281
C 37.247737884521484 52.337345123291016 55.562904357910156
C 35.58519744873047 52.95188522338867 54.01984405517578
C 36.07344436645508 54.17241287231445 54.64498519897461
C 34.28221130371094 49.374141693115234 57.76675796508789
C 37.4356689453125 51.589866638183594 56.69281005859375
C 32.275848388671875 52.023311614990234 54.386573791503906
C 36.876922607421875 51.55229949951172 58.955711364746094
C 37.31768798828125 53.666019439697266 58.00328826904297
C 35.13473129272461 49.875831604003906 58.66033172607422
C 34.232452392578125 52.82697677612305 53.797706604003906
C 34.018497467041016 52.636051177978516 60.55567932128906
C 32.63779067993164 52.50168228149414 60.35881042480469
C 30.90254020690918 53.89687728881836 57.687721252441406
C 32.752952575683594 54.7826042175293 59.554954528808594
C 35.75464630126953 50.42899703979492 54.5728759765625
C 35.85538864135742 49.883872985839844 55.96092987060547
C 34.219947814941406 50.53449630737305 54.447689056396484
C 34.56418991088867 49.52533721923828 56.4296760559082
C 31.17984390258789 51.74455642700195 58.806819915771484
C 37.02725601196289 53.75932693481445 55.59914016723633
C 33.548038482666016 51.66295623779297 53.9554328918457
C 33.61643981933594 49.78215408325195 55.476253509521484
C 33.35850143432617 53.84910202026367 54.04521942138672
C 32.96611785888672 49.60783767700195 58.21246337890625
C 36.66107940673828 50.49923324584961 56.92470932006836
C 37.445804595947266 52.28628921508789 57.926448822021484
C 35.174007415771484 55.17277908325195 54.96127700805664
C 37.134071350097656 54.47239303588867 56.81468200683594
C 32.031681060791016 53.6193733215332 59.805145263671875
C 36.32556915283203 50.45930862426758 58.245216369628906
C 31.984106063842773 50.03211975097656 57.2740478515625
C 34.01836013793945 56.17830276489258 56.57489013671875
C 33.08112335205078 55.638057708740234 55.687705993652344
C 31.340927124023438 54.03616714477539 55.450233459472656
C 30.919063568115234 51.809268951416016 56.3619270324707
C 36.1129035949707 53.581790924072266 60.049232482910156
C 34.9254150390625 51.63401412963867 60.32327651977539
C 30.724531173706055 53.23561477661133 56.447879791259766
C 34.13980484008789 54.929813385009766 59.86375427246094
C 37.361488342285156 51.44660568237305 53.15265655517578
N 37.223819732666016 50.302860260009766 52.699302673339844
C 36.37076950073242 49.4467887878418 53.53763961791992
H 37.035438537597656 48.726924896240234 54.02206039428711
H 35.66740798950195 48.92203140258789 52.88605499267578
C 40.107994079589844 54.19147872924805 51.22910690307617
C 40.289390563964844 53.71999740600586 52.52899169921875
H 41.28892517089844 53.90561294555664 52.91376495361328
C 39.470909118652344 52.82094192504883 53.20758056640625
H 39.78171920776367 52.332218170166016 54.12742614746094
C 38.25468826293945 52.442508697509766 52.572391510009766
C 38.95195007324219 53.80532455444336 50.61587142944336
H 38.821746826171875 54.17026138305664 49.60026931762695
C 38.0537109375 52.92875289916992 51.243408203125
H 37.05621337890625 52.82761764526367 50.82347869873047
C 41.1815299987793 55.00200271606445 50.605438232421875
C 42.5079345703125 55.20308303833008 51.26966857910156
C 42.86127853393555 55.6734733581543 52.44344711303711
H 42.205482482910156 56.04032516479492 53.22612380981445
C 44.303871154785156 55.63718795776367 52.492431640625
H 44.938880920410156 55.8677864074707 53.34144592285156
C 44.73785400390625 55.3112907409668 51.268882751464844
N 43.65904998779297 54.87783432006836 50.608970642089844
H 43.7155647277832 54.47230911254883 49.68458557128906
C 46.13988494873047 55.25418472290039 50.758201599121094
H 46.8715705871582 55.48823928833008 51.530067443847656
C 46.627838134765625 54.838191986083984 49.59185028076172
C 47.9708366394043 55.13632583618164 49.36852264404297
H 48.657562255859375 55.554813385009766 50.09687423706055
C 48.05911636352539 54.967830657958984 48.026039123535156
H 48.92254638671875 55.277462005615234 47.44651412963867
C 46.76267623901367 54.475521087646484 47.524654388427734
N 45.85421371459961 54.47269821166992 48.49335861206055
C 46.38105773925781 54.20103073120117 46.13071060180664
C 45.2928581237793 54.748294830322266 45.52791976928711
C 45.125892639160156 55.44406509399414 44.2639045715332
H 45.9455680847168 55.607913970947266 43.57215881347656
C 43.900604248046875 56.12028884887695 44.29652404785156
H 43.461490631103516 56.78822708129883 43.56285858154297
C 43.21980667114258 55.77072525024414 45.48325729370117
N 44.09651184082031 54.90763473510742 46.120513916015625
H 43.948822021484375 54.5326042175293 47.047691345214844
C 42.06263732910156 56.264835357666016 45.95029830932617
H 41.59695053100586 56.92013931274414 45.21570587158203
C 41.36805725097656 56.14839553833008 47.236000061035156
C 40.094974517822266 56.77702713012695 47.7155876159668
H 39.441932678222656 57.435428619384766 47.15232849121094
C 39.95267868041992 56.38546371459961 48.99484634399414
H 39.09202575683594 56.4583625793457 49.65149688720703
C 41.021644592285156 55.585269927978516 49.329010009765625
N 41.86737823486328 55.52547073364258 48.29412841796875
C 48.14708709716797 50.73909378051758 44.09675598144531
C 47.0969123840332 51.412811279296875 43.52257537841797
H 46.55300521850586 51.064090728759766 42.64842987060547
C 46.61830520629883 52.55659866333008 44.239315032958984
H 45.73786926269531 53.0132942199707 43.794525146484375
C 47.066200256347656 53.032474517822266 45.42116928100586
C 48.64223098754883 51.20425796508789 45.310245513916016
H 49.47733688354492 50.69121170043945 45.780303955078125
C 48.13216018676758 52.347225189208984 45.925636291503906
H 48.63895034790039 52.759151458740234 46.79457092285156
N 48.603004455566406 49.503135681152344 43.496524810791016
H 47.86724090576172 48.853336334228516 43.263084411621094
C 49.908714294433594 49.182525634765625 43.16472244262695
O 50.87979507446289 49.96479415893555 43.35770034790039
C 50.01653289794922 47.951759338378906 42.35350799560547
C 51.28755187988281 47.32963180541992 42.28396987915039
H 52.087501525878906 47.834251403808594 42.8197021484375
C 51.45063018798828 46.141212463378906 41.72281265258789
C 50.364013671875 45.51961135864258 41.14591979980469
H 50.490169525146484 44.51667404174805 40.746212005615234
C 49.13613510131836 46.19390869140625 41.05087661743164
H 48.3583984375 45.71266174316406 40.46342468261719
C 48.93087387084961 47.40113830566406 41.66832733154297
H 47.95475769042969 47.87800216674805 41.631385803222656
C 52.80856704711914 45.56489944458008 41.91361999511719
H 53.56105422973633 46.24227523803711 42.31467056274414
C 53.28300094604492 44.38752746582031 41.474910736083984
H 52.53371810913086 43.746849060058594 41.01227951049805
C 54.675254821777344 43.886661529541016 41.60606384277344
C 55.05329895019531 42.67061996459961 40.851070404052734
H 55.34489440917969 41.812721252441406 41.46052551269531
H 55.8919677734375 42.88604736328125 40.18571853637695
H 54.140625 42.362361907958984 40.3368034362793
C 55.59897994995117 44.44969940185547 42.455535888671875
H 55.29240417480469 45.28491973876953 43.083499908447266
C 56.946598052978516 43.98305892944336 42.613807678222656
H 57.382286071777344 43.38168716430664 41.81728744506836
C 57.66585922241211 44.260677337646484 43.718509674072266
H 57.21385192871094 44.98383331298828 44.395751953125
C 58.94192123413086 43.712982177734375 44.14439010620117
C 59.70189666748047 44.55520248413086 45.138431549072266
H 59.842926025390625 44.012718200683594 46.075599670410156
H 60.69591522216797 44.658241271972656 44.69823455810547
H 59.31599044799805 45.54408645629883 45.39466094970703
C 59.53757858276367 42.693294525146484 43.52452850341797
H 58.99399948120117 42.163604736328125 42.74358367919922
C 60.934486389160156 42.2392463684082 43.76921463012695
H 61.334869384765625 42.537864685058594 44.736915588378906
C 61.61771011352539 41.54764938354492 42.83557891845703
H 60.98613739013672 41.31233596801758 41.980201721191406
C 62.98963928222656 41.08782196044922 42.98988723754883
H 63.43380355834961 41.48190689086914 43.90275955200195
C 63.71846008300781 40.47714614868164 42.005008697509766
C 63.235904693603516 40.046669006347656 40.62948989868164
H 62.206260681152344 40.339385986328125 40.413578033447266
H 63.80014419555664 40.63457107543945 39.90253448486328
H 63.241146087646484 38.97065353393555 40.44338607788086
C 65.13308715820312 40.31446075439453 42.19292449951172
H 65.42096710205078 40.57485580444336 43.210391998291016
C 66.11316680908203 39.79267120361328 41.46699523925781
H 65.91901397705078 39.566001892089844 40.4196891784668
C 67.4870376586914 39.561363220214844 41.874568939208984
H 67.71963500976562 39.761940002441406 42.91936111450195
C 68.49618530273438 39.075897216796875 41.14078140258789
C 68.36199951171875 38.962162017822266 39.61793899536133
H 67.60208129882812 38.204681396484375 39.4149284362793
H 68.05339050292969 39.88656997680664 39.125301361083984
H 69.274658203125 38.61091613769531 39.13198471069336
C 69.92002868652344 38.915218353271484 41.52616882324219
H 70.59222412109375 38.46084213256836 40.79979705810547
C 70.47233581542969 39.24748229980469 42.730133056640625
H 69.77709197998047 39.608314514160156 43.48667907714844
C 71.80538940429688 39.14223098754883 43.30900192260742
C 72.93701171875 38.677791595458984 42.67994689941406
C 72.99066925048828 38.07101821899414 41.28205490112305
H 72.75797271728516 38.87173080444336 40.57695007324219
H 74.0024642944336 37.7861442565918 40.98609924316406
H 72.26487731933594 37.25518798828125 41.271636962890625
C 74.33931732177734 38.67982482910156 43.30310821533203
H 74.77043151855469 39.63884735107422 43.00836181640625
H 74.94213104248047 37.822914123535156 42.9952392578125
C 74.26139068603516 38.60022735595703 44.834747314453125
H 75.25862121582031 38.68208312988281 45.272125244140625
H 73.7940444946289 37.648597717285156 45.09637451171875
C 73.31891632080078 39.720401763916016 45.239097595214844
H 73.41607666015625 39.858272552490234 46.3179931640625
H 73.80120086669922 40.64820861816406 44.924381256103516
C 71.82302856445312 39.661903381347656 44.78581237792969
C 70.9864501953125 38.89076614379883 45.79495620727539
H 70.62824249267578 37.99444580078125 45.28431701660156
H 71.57664489746094 38.61043167114258 46.66991424560547
H 70.15724182128906 39.50253677368164 46.156375885009766
C 71.45735168457031 41.099124908447266 44.93082046508789
H 70.40296936035156 41.29719161987305 44.72705078125
H 71.57591247558594 41.514530181884766 45.93374252319336
H 71.9925308227539 41.7888298034668 44.27480697631836
