207
Triad, Carotenoid-Porphyrin-C60
C 32.33408737182617 47.25114822387695 53.937232971191406
C 37.26424026489258 43.10879135131836 54.610042572021484
C 37.08722686767578 45.32225036621094 54.93980026245117
C 35.54897689819336 47.052486419677734 55.34202194213867
C 35.770599365234375 41.25308609008789 54.39946746826172
C 36.786338806152344 42.0450325012207 53.8479118347168
C 35.90275573730469 42.48680877685547 56.473472595214844
C 35.797607421875 45.25651550292969 56.953731536865234
C 31.669458389282227 46.29269790649414 55.85714340209961
C 35.33439254760742 41.49571228027344 55.70486068725586
C 33.26986312866211 47.59413528442383 54.923484802246094
C 32.49411392211914 41.497581481933594 52.99174499511719
C 34.787967681884766 41.03270721435547 53.47515869140625
C 30.86066246032715 43.244869232177734 53.33731460571289
C 30.922819137573242 44.009925842285156 55.6661491394043
C 30.57468605041504 44.22854232788086 54.27857208251953
C 33.0320930480957 41.18171691894531 55.11070251464844
C 34.858192443847656 43.06158447265625 57.293514251708984
C 34.86741256713867 44.434043884277344 57.566612243652344
C 32.4592399597168 44.46070098876953 57.26961898803711
C 35.815425872802734 45.63017654418945 51.0139274597168
C 35.637664794921875 44.09062576293945 51.08980178833008
C 36.58699035644531 45.809288024902344 52.289573669433594
C 37.14103698730469 44.583587646484375 52.664031982421875
C 31.2363338470459 45.16473388671875 52.420684814453125
C 34.409950256347656 43.427677154541016 50.89160919189453
C 34.63020706176758 47.610572814941406 54.547828674316406
C 32.8311653137207 42.07151412963867 51.780860900878906
C 35.1621208190918 41.67719268798828 52.32049560546875
C 31.267480850219727 43.80171203613281 52.1785774230957
C 36.3154182434082 46.83796310424805 53.25419616699219
C 31.804391860961914 41.83359909057617 55.099918365478516
C 31.51690101623535 42.83171844482422 56.024417877197266
C 33.66896438598633 45.1556396484375 57.495948791503906
C 33.678123474121094 42.40227127075195 57.03159713745117
C 34.41010284423828 46.409236907958984 50.930084228515625
C 33.20484161376953 45.523704528808594 50.9797248840332
C 34.081748962402344 47.160438537597656 52.274112701416016
C 32.20120620727539 46.00651550292969 51.86156463623047
C 31.493005752563477 45.02384567260742 56.45306396484375
C 36.567596435546875 43.52824020385742 51.910579681396484
C 35.01990509033203 47.40500259399414 53.25095748901367
C 32.72660827636719 47.06220626831055 52.597686767578125
C 36.54171371459961 46.551822662353516 54.582244873046875
C 30.792760848999023 45.453067779541016 53.74486541748047
C 33.200416564941406 44.128231048583984 50.79651641845703
C 34.182125091552734 42.137428283691406 51.42229080200195
C 37.431968688964844 44.337562561035156 54.02040481567383
C 36.432979583740234 42.2926025390625 52.508060455322266
C 32.4769401550293 43.09284591674805 56.941917419433594
C 32.24429702758789 43.28727340698242 51.37815856933594
C 31.305932998657227 46.47251510620117 54.50862121582031
C 36.78535842895508 43.36541748046875 55.89520263671875
C 36.719696044921875 44.68806457519531 56.110321044921875
C 35.20509719848633 46.46782684326172 56.52742385864258
C 32.88418197631836 46.978057861328125 56.084659576416016
C 33.44628143310547 40.90161895751953 53.79127502441406
C 31.509061813354492 42.06393051147461 53.74553298950195
C 33.873817443847656 46.379173278808594 56.84663772583008
C 34.00094223022461 41.497825622558594 56.04787826538086
C 36.47673034667969 46.1801643371582 49.73465347290039
N 35.76448059082031 47.00357437133789 49.10087966918945
C 34.46247863769531 47.266082763671875 49.702537536621094
H 33.7169075012207 46.90940475463867 48.987308502197266
H 34.26049041748047 48.3250846862793 49.8824348449707
C 40.040191650390625 44.624454498291016 48.01487731933594
C 38.879581451416016 44.722190856933594 47.25973892211914
H 38.8736686706543 44.58742904663086 46.1811408996582
C 37.712501525878906 45.22748947143555 47.8359489440918
H 36.737754821777344 45.29170608520508 47.35917282104492
C 37.71566390991211 45.680274963378906 49.22289276123047
C 40.02249526977539 45.00931930541992 49.348331451416016
H 40.98339080810547 45.02243423461914 49.856346130371094
C 38.896915435791016 45.60445785522461 49.9709587097168
H 38.83715057373047 45.985633850097656 50.9871826171875
C 41.35514450073242 44.10520553588867 47.401424407958984
C 41.32783508300781 43.89507293701172 45.95662307739258
C 40.67977523803711 43.00350570678711 45.22639083862305
H 39.89811706542969 42.319732666015625 45.54054260253906
C 41.3246955871582 42.94088363647461 43.98412322998047
H 41.01614761352539 42.28502655029297 43.176734924316406
C 42.4126091003418 43.724708557128906 43.96759033203125
N 42.318931579589844 44.34852600097656 45.182254791259766
H 43.02938461303711 44.93868637084961 45.59345626831055
C 43.484153747558594 43.94695281982422 42.95173645019531
H 43.53335952758789 43.27895736694336 42.09307861328125
C 44.39044189453125 44.954200744628906 42.942176818847656
C 45.182647705078125 45.21468734741211 41.83188247680664
H 45.01248550415039 44.689937591552734 40.897586822509766
C 46.189720153808594 46.03366470336914 42.19346618652344
H 47.125919342041016 46.25651931762695 41.69237518310547
C 45.989784240722656 46.322601318359375 43.61369705200195
N 44.957122802734375 45.5601921081543 44.034202575683594
C 46.82527160644531 47.01298522949219 44.54231262207031
C 47.09669876098633 46.47846603393555 45.81776809692383
C 48.32426834106445 46.2982177734375 46.550724029541016
H 49.26631164550781 46.64433670043945 46.13843536376953
C 48.09852981567383 45.75633239746094 47.77225112915039
H 48.866634368896484 45.56463623046875 48.51420593261719
C 46.697025299072266 45.547340393066406 47.880210876464844
N 46.2194938659668 46.03410339355469 46.708648681640625
H 45.22748565673828 45.94101333618164 46.537254333496094
C 45.956298828125 44.904380798339844 48.820640563964844
H 46.43800354003906 44.4865608215332 49.703426361083984
C 44.54484939575195 44.44230651855469 48.84153747558594
C 43.8294792175293 43.65433883666992 49.8171272277832
H 44.34257888793945 43.39344787597656 50.73685073852539
C 42.56869888305664 43.4085693359375 49.37278747558594
H 41.78823471069336 42.852256774902344 49.8813362121582
C 42.48539352416992 44.08076095581055 48.189579010009766
N 43.665252685546875 44.648841857910156 47.958072662353516
C 48.514217376708984 50.937068939208984 43.41642379760742
C 48.68707275390625 50.39820861816406 44.68856430053711
H 49.121429443359375 51.02490997314453 45.4632568359375
C 48.04602813720703 49.19981384277344 45.09788513183594
H 47.97036361694336 48.90727996826172 46.14204406738281
C 47.336334228515625 48.404293060302734 44.2030029296875
C 47.88563537597656 50.10407257080078 42.43398666381836
H 47.76966094970703 50.43675994873047 41.405670166015625
C 47.19609069824219 48.91561508178711 42.849082946777344
H 46.561241149902344 48.429927825927734 42.11244201660156
N 49.14630889892578 52.16401290893555 43.09040069580078
H 49.839073181152344 52.42729568481445 43.775115966796875
C 48.70962905883789 53.156166076660156 42.28874206542969
O 47.66459274291992 53.05476760864258 41.69428634643555
C 49.531986236572266 54.38233947753906 42.188209533691406
C 50.76602554321289 54.44923400878906 42.78642272949219
H 51.10285568237305 53.53898239135742 43.2758674621582
C 51.52659225463867 55.60413360595703 42.70027542114258
C 51.039371490478516 56.73713302612305 42.081565856933594
H 51.75887680053711 57.55192184448242 42.08176040649414
C 49.81721496582031 56.68607711791992 41.45212936401367
H 49.37834167480469 57.53146743774414 40.92841339111328
C 49.04697036743164 55.47145462036133 41.503665924072266
H 48.0723991394043 55.36259078979492 41.034698486328125
C 52.84198760986328 55.77138137817383 43.32333755493164
H 53.23954391479492 54.83820724487305 43.719635009765625
C 53.719642639160156 56.882816314697266 43.37062072753906
H 53.408363342285156 57.86871337890625 43.02851867675781
C 55.0150146484375 56.82585144042969 43.979026794433594
C 55.547767639160156 58.13301086425781 44.5374755859375
H 56.245113372802734 58.647708892822266 43.87321090698242
H 55.96603012084961 57.996089935302734 45.536865234375
H 54.68281936645508 58.794620513916016 44.618778228759766
C 55.74070358276367 55.7154426574707 44.15209197998047
H 55.22922134399414 54.83262634277344 43.7713737487793
C 57.04597473144531 55.466896057128906 44.77635192871094
H 57.4281005859375 56.38404846191406 45.22214126586914
C 57.66389465332031 54.326072692871094 44.75992965698242
H 57.231563568115234 53.473419189453125 44.238399505615234
C 58.9949951171875 54.030609130859375 45.22050857543945
C 59.448219299316406 52.65376663208008 44.80390930175781
H 59.380950927734375 51.967838287353516 45.65093231201172
H 58.75011444091797 52.220245361328125 44.08475875854492
H 60.450401306152344 52.600162506103516 44.37355041503906
C 59.788658142089844 54.799537658691406 46.01622009277344
H 59.49800109863281 55.756778717041016 46.44648361206055
C 61.13245391845703 54.49586868286133 46.38360595703125
H 61.46223449707031 53.46236801147461 46.288509368896484
C 62.110595703125 55.34560012817383 46.806156158447266
H 61.81920623779297 56.3643684387207 47.05742263793945
C 63.48594665527344 54.94771194458008 47.04631042480469
H 63.875640869140625 54.07188034057617 46.529605865478516
C 64.34671020507812 55.60294723510742 47.86994934082031
C 63.96153259277344 56.815711975097656 48.61020278930664
H 62.97834014892578 56.64093017578125 49.05208969116211
H 64.6571044921875 57.14370346069336 49.3854866027832
H 63.754295349121094 57.61526870727539 47.895904541015625
C 65.6373291015625 55.129493713378906 48.1529426574707
H 66.30756378173828 55.95930480957031 48.3723258972168
C 65.95818328857422 53.81907653808594 48.1229133605957
H 65.14667510986328 53.09706115722656 48.045005798339844
C 67.28095245361328 53.32815933227539 48.35108947753906
H 68.03779602050781 54.10006332397461 48.48252868652344
C 67.6216812133789 52.112449645996094 48.486629486083984
C 66.6640396118164 51.032875061035156 48.33700180053711
H 67.063720703125 50.091617584228516 48.72007751464844
H 65.77921295166016 51.308868408203125 48.914390563964844
H 66.50531768798828 50.976341247558594 47.25808334350586
C 68.97599792480469 51.627601623535156 48.88176345825195
H 68.97416687011719 50.62557601928711 49.30821228027344
C 70.13465881347656 52.32667922973633 48.83378982543945
H 70.1987075805664 53.34872055053711 48.463314056396484
C 71.47880554199219 51.88119888305664 49.32805633544922
C 71.61280059814453 51.386234283447266 50.5694580078125
C 70.52061462402344 51.197750091552734 51.582157135009766
H 69.54026794433594 51.618797302246094 51.34953308105469
H 70.46269226074219 50.118560791015625 51.738555908203125
H 70.90674591064453 51.62126922607422 52.51167297363281
C 72.88116455078125 51.017147064208984 51.14872741699219
H 72.74771118164062 50.22294998168945 51.886226654052734
H 73.26905822753906 51.849578857421875 51.73953628540039
C 73.97596740722656 50.71962356567383 50.18394470214844
H 73.83138275146484 49.7408447265625 49.72182846069336
H 74.94097900390625 50.723636627197266 50.695030212402344
C 74.03751373291016 51.92966079711914 49.247039794921875
H 74.2122802734375 52.933738708496094 49.639137268066406
H 74.8051528930664 51.69619369506836 48.50630187988281
C 72.76639556884766 52.134647369384766 48.418418884277344
C 72.79602813720703 53.44121170043945 47.64253234863281
H 71.99434661865234 53.6892204284668 46.94377136230469
H 72.6861572265625 54.1919059753418 48.42793273925781
H 73.7647705078125 53.45475387573242 47.138729095458984
C 72.83888244628906 51.09566879272461 47.287872314453125
H 71.95541381835938 51.18938446044922 46.652923583984375
H 73.71110534667969 51.26975631713867 46.65431594848633
H 72.98462677001953 50.07343673706055 47.643218994140625
