207
Triad, Carotenoid-Porphyrin-C60
C 34.40718460083008 52.0651741027832 42.94072723388672
C 39.76627731323242 49.115970611572266 44.89817428588867
C 39.55168533325195 51.24892044067383 44.18653869628906
C 37.70835494995117 52.83401107788086 43.884456634521484
C 38.491153717041016 47.2993049621582 45.81657028198242
C 39.27579116821289 47.79671096801758 44.775753021240234
C 38.6353645324707 49.40205383300781 47.0462646484375
C 38.25920486450195 52.00224685668945 46.08385467529297
C 34.005802154541016 52.02976608276367 45.16681671142578
C 38.1889762878418 48.050437927246094 47.00461196899414
C 35.362369537353516 52.878475189208984 43.47945785522461
C 35.1159553527832 46.48190689086914 44.87265396118164
C 37.475337982177734 46.570899963378906 45.22384262084961
C 33.294307708740234 48.056453704833984 44.57876205444336
C 33.56112289428711 49.878265380859375 46.16011428833008
C 33.12851333618164 49.37677764892578 44.966896057128906
C 35.841068267822266 47.263389587402344 46.91563415527344
C 37.61079025268555 50.215824127197266 47.533260345458984
C 37.46287155151367 51.49203872680664 47.0813102722168
C 35.09556198120117 51.18991470336914 47.07381820678711
C 37.715267181396484 49.4615364074707 40.688594818115234
C 37.75851821899414 48.0585823059082 41.47946548461914
C 38.57915115356445 50.25070571899414 41.657466888427734
C 39.27080154418945 49.4481315612793 42.54064178466797
C 33.40354537963867 49.47652816772461 42.78960037231445
C 36.63884353637695 47.347408294677734 41.85173034667969
C 36.67336654663086 52.87723922729492 43.006656646728516
C 35.32993698120117 46.49666976928711 43.49108123779297
C 37.69144821166992 46.55869674682617 43.845462799072266
C 33.48466873168945 48.1441764831543 43.201480865478516
C 38.26151657104492 51.567440032958984 42.05596923828125
C 34.5170783996582 47.78871536254883 46.64384078979492
C 34.235294342041016 49.1094970703125 47.00724411010742
C 36.2175407409668 52.02022933959961 46.900108337402344
C 36.50581741333008 49.39495086669922 47.82426071166992
C 36.245723724365234 50.047298431396484 40.509788513183594
C 35.170223236083984 49.161136627197266 41.075469970703125
C 35.94465255737305 51.3524284362793 41.28379440307617
C 34.20981216430664 49.943111419677734 41.7883415222168
C 34.04537582397461 51.15816879272461 46.261253356933594
C 38.79844284057617 48.138824462890625 42.40898513793945
C 36.94334030151367 52.037288665771484 41.96171569824219
C 34.6812629699707 51.26554489135742 41.874141693115234
C 38.70094680786133 51.99661636352539 43.31182098388672
C 33.17937088012695 50.23624038696289 43.89908218383789
C 35.36367416381836 47.91728210449219 41.686729431152344
C 36.58989334106445 46.54341125488281 42.977909088134766
C 39.765621185302734 49.912933349609375 43.78806686401367
C 38.73734664916992 47.40532302856445 43.58525466918945
C 35.21834182739258 49.95146560668945 47.5704460144043
C 34.53043746948242 47.34853744506836 42.66361999511719
C 33.60599899291992 51.5743522644043 43.967464447021484
C 39.43294143676758 49.893009185791016 46.0294189453125
C 39.30613327026367 51.234256744384766 45.56990051269531
C 37.519779205322266 52.82732009887695 45.25764083862305
C 35.1329460144043 52.847843170166016 44.896305084228516
C 36.17998123168945 46.49607849121094 45.77468490600586
C 34.0826301574707 47.259765625 45.3879280090332
C 36.198299407958984 52.88370132446289 45.811279296875
C 36.833988189697266 48.077056884765625 47.49203109741211
C 38.27425003051758 49.58051681518555 39.25100326538086
N 37.489749908447266 50.258766174316406 38.48107147216797
C 36.12618637084961 50.43397521972656 39.01380920410156
H 35.42258834838867 49.69965362548828 38.61334228515625
H 35.910343170166016 51.50215530395508 38.9298210144043
C 42.431034088134766 48.56752014160156 38.67608642578125
C 42.01530075073242 49.876502990722656 38.87693786621094
H 42.72243881225586 50.66536331176758 39.12027359008789
C 40.648433685302734 50.2663459777832 39.11565399169922
H 40.36326217651367 51.2938117980957 39.326725006103516
C 39.68516159057617 49.28028106689453 38.93082046508789
C 41.40834426879883 47.578243255615234 38.633766174316406
H 41.749393463134766 46.555721282958984 38.49338150024414
C 40.04154586791992 47.94558334350586 38.771907806396484
H 39.26102828979492 47.18903732299805 38.77085494995117
C 43.85507583618164 48.15970230102539 38.644474029541016
C 44.85030746459961 49.148101806640625 39.06208038330078
C 45.18830490112305 50.359375 38.55576705932617
H 44.81709671020508 50.899600982666016 37.69113540649414
C 46.30610275268555 50.873687744140625 39.314048767089844
H 46.94416427612305 51.74856948852539 39.24560546875
C 46.69247817993164 49.91001892089844 40.208866119384766
N 45.7390251159668 48.93579864501953 40.088966369628906
H 45.67744827270508 48.1765251159668 40.75366973876953
C 47.65504837036133 49.92447280883789 41.24127197265625
H 48.12578201293945 50.89191818237305 41.40971755981445
C 48.01790237426758 48.955421447753906 42.14894104003906
C 49.15188980102539 49.04534149169922 42.92721939086914
H 49.87845993041992 49.851131439208984 42.922943115234375
C 49.2449836730957 47.878971099853516 43.54443359375
H 50.024723052978516 47.48127746582031 44.185577392578125
C 48.03194046020508 47.13123321533203 43.25944900512695
N 47.325138092041016 47.82118606567383 42.31068420410156
C 47.76480484008789 45.76320266723633 43.61289978027344
C 47.53669357299805 44.85268020629883 42.656246185302734
C 48.09624099731445 43.57040786743164 42.39930725097656
H 48.92838668823242 43.182674407958984 42.97760009765625
C 47.58687973022461 42.99705123901367 41.24317932128906
H 47.80082321166992 42.03523254394531 40.788909912109375
C 46.72109603881836 43.9598274230957 40.621246337890625
N 46.78261184692383 44.97005081176758 41.51877212524414
H 46.18623733520508 45.736610412597656 41.23798370361328
C 46.00346755981445 43.887760162353516 39.43683624267578
H 46.06516647338867 42.958099365234375 38.87306213378906
C 45.23550796508789 44.88992691040039 38.79880142211914
C 44.4659309387207 44.821815490722656 37.58641815185547
H 44.461849212646484 43.99140930175781 36.88811111450195
C 43.901004791259766 46.07523727416992 37.35233688354492
H 43.1937370300293 46.385520935058594 36.59027862548828
C 44.1773796081543 46.81992721557617 38.475311279296875
N 45.06399154663086 46.13655090332031 39.240760803222656
C 48.05617141723633 44.657291412353516 47.859901428222656
C 47.68107986450195 43.71472930908203 46.870140075683594
H 47.39292526245117 42.6968994140625 47.12027359008789
C 47.624935150146484 44.05351638793945 45.56781005859375
H 47.24411392211914 43.28169250488281 44.90386199951172
C 47.8525505065918 45.29819869995117 45.10342025756836
C 48.33424758911133 45.91248321533203 47.45140075683594
H 48.5488166809082 46.735267639160156 48.12856674194336
C 48.17812728881836 46.2413330078125 46.05506896972656
H 48.15102005004883 47.300045013427734 45.810184478759766
N 48.22361373901367 44.27609634399414 49.20556640625
H 48.55544662475586 45.07548141479492 49.72417449951172
C 48.0532112121582 43.103023529052734 49.852806091308594
O 47.70258712768555 42.12957763671875 49.272342681884766
C 48.42953109741211 43.01146697998047 51.28276443481445
C 49.557193756103516 43.64507293701172 51.77945327758789
H 50.2301139831543 44.08404541015625 51.047298431396484
C 49.9764518737793 43.519264221191406 53.086456298828125
C 49.23910140991211 42.78963088989258 53.96372985839844
H 49.48428726196289 42.748268127441406 55.02191162109375
C 48.12227249145508 42.11994171142578 53.52880096435547
H 47.55423355102539 41.47051239013672 54.189964294433594
C 47.72063064575195 42.19834518432617 52.16178512573242
H 46.8140754699707 41.700401306152344 51.82747268676758
C 51.2236213684082 44.28239822387695 53.50701904296875
H 51.57646560668945 44.90446090698242 52.685768127441406
C 51.89751052856445 44.39492416381836 54.67925262451172
H 51.506160736083984 43.74773406982422 55.4627799987793
C 53.13796615600586 45.176876068115234 55.00333786010742
C 53.452396392822266 46.27460479736328 54.04988098144531
H 52.523494720458984 46.7115478515625 53.67747497558594
H 54.110660552978516 45.9525032043457 53.24031448364258
H 53.97135543823242 47.02931594848633 54.64448547363281
C 53.86311721801758 44.92879867553711 56.108787536621094
H 53.3974494934082 44.22404861450195 56.79610824584961
C 55.033504486083984 45.63147735595703 56.624996185302734
H 55.67580795288086 46.064456939697266 55.859561920166016
C 55.27822494506836 45.736671447753906 57.9364013671875
H 54.5357780456543 45.23835754394531 58.55799102783203
C 56.35550308227539 46.474342346191406 58.56679916381836
C 56.84305191040039 46.01152801513672 59.8692512512207
H 57.883663177490234 46.26484298706055 60.08240509033203
H 56.175716400146484 46.435401916503906 60.62254333496094
H 56.84895706176758 44.92241287231445 59.9483528137207
C 56.80707931518555 47.652652740478516 58.051002502441406
H 56.26521682739258 47.94992446899414 57.15437698364258
C 57.90065383911133 48.49763870239258 58.478004455566406
H 58.40401077270508 48.14623260498047 59.37748718261719
C 58.30881118774414 49.638973236083984 57.9056396484375
H 57.73617172241211 49.92288589477539 57.0239372253418
C 59.5045051574707 50.29680252075195 58.30778503417969
H 60.05667495727539 49.6220588684082 58.96028518676758
C 60.02763748168945 51.4442024230957 57.91074752807617
C 59.37129592895508 52.342044830322266 56.90995407104492
H 58.39786148071289 52.73117446899414 57.215660095214844
H 59.9398078918457 53.246158599853516 56.682254791259766
H 59.22872543334961 51.8172492980957 55.96299743652344
C 61.31570816040039 51.84980392456055 58.3374137878418
H 61.6255989074707 52.88143539428711 58.17732620239258
C 62.34233474731445 51.04117965698242 58.741493225097656
H 62.07626724243164 49.99419403076172 58.87918472290039
C 63.68307876586914 51.5232048034668 59.074520111083984
H 63.83063888549805 52.60036849975586 59.01225662231445
C 64.77532958984375 50.847007751464844 59.458614349365234
C 64.74285888671875 49.376651763916016 59.6855583190918
H 64.62718963623047 49.139163970947266 60.74512481689453
H 63.8016471862793 48.98317337036133 59.29600143432617
H 65.6398696899414 48.87060546875 59.32258605957031
C 66.08372497558594 51.48978805541992 59.60594177246094
H 66.84612274169922 50.99984359741211 60.209781646728516
C 66.48480224609375 52.683589935302734 59.09804916381836
H 65.8270492553711 53.2330436706543 58.426204681396484
C 67.82491302490234 53.23136520385742 59.340492248535156
C 68.3053970336914 53.41635513305664 60.609962463378906
C 67.42626190185547 53.19646072387695 61.834468841552734
H 66.4017333984375 53.44772720336914 61.55223846435547
H 67.44589233398438 52.136837005615234 62.097694396972656
H 67.54985046386719 53.78599166870117 62.74531555175781
C 69.71357727050781 53.854915618896484 61.01018142700195
H 70.35054779052734 52.991947174072266 61.21513366699219
H 69.72936248779297 54.426937103271484 61.94023895263672
C 70.34893798828125 54.5046272277832 59.73404312133789
H 71.42817687988281 54.66910171508789 59.75981140136719
H 69.86597442626953 55.46418380737305 59.53794479370117
C 70.19207763671875 53.5443229675293 58.50260543823242
H 70.8503646850586 53.85397720336914 57.68821334838867
H 70.56790161132812 52.5373649597168 58.695621490478516
C 68.6723861694336 53.440547943115234 58.09970474243164
C 68.3522720336914 54.63003921508789 57.251033782958984
H 67.34309387207031 54.59648513793945 56.83522415161133
H 68.38055419921875 55.51481246948242 57.89045333862305
H 69.0122299194336 54.729740142822266 56.38676452636719
C 68.51531982421875 52.387020111083984 57.0275764465332
H 69.24581909179688 52.52140426635742 56.227088928222656
H 68.67125701904297 51.42229080200195 57.514854431152344
H 67.46331787109375 52.33634567260742 56.7391471862793
