207
Triad, Carotenoid-Porphyrin-C60
C 64.68374633789062 52.86354064941406 36.7576904296875
C 58.51307678222656 50.99815368652344 36.45060729980469
C 59.371742248535156 53.08103561401367 36.646873474121094
C 61.47154235839844 54.240966796875 36.2308235168457
C 59.143333435058594 48.74117660522461 35.777557373046875
C 58.75652313232422 49.637935638427734 36.7835578918457
C 59.21565246582031 50.575984954833984 34.227333068847656
C 60.27687072753906 53.14124298095703 34.42816162109375
C 64.51886749267578 52.312801361083984 34.58106231689453
C 59.37800598144531 49.18712615966797 34.4722900390625
C 63.79505157470703 53.71096420288086 36.15000915527344
C 62.473533630371094 47.474082946777344 36.36444091796875
C 60.04230499267578 47.867958068847656 36.42278289794922
C 64.59017944335938 48.547672271728516 35.916770935058594
C 64.37791442871094 49.9857292175293 33.913639068603516
C 64.99225616455078 49.6497802734375 35.145042419433594
C 61.46782684326172 47.95035171508789 34.40168762207031
C 60.18726348876953 50.97905731201172 33.307979583740234
C 60.71204376220703 52.26854705810547 33.4539909362793
C 62.867591857910156 51.41670227050781 33.02922058105469
C 61.42259216308594 51.608985900878906 39.97806167602539
C 60.97730255126953 50.22658157348633 39.50779342651367
C 60.57823944091797 52.4404182434082 39.045928955078125
C 59.56873321533203 51.65078353881836 38.49543380737305
C 65.17532348632812 50.23434829711914 37.37946701049805
C 61.80157470703125 49.18818283081055 39.192073822021484
C 62.695945739746094 54.152809143066406 36.83978271484375
C 62.594810485839844 47.7257194519043 37.686214447021484
C 60.16047668457031 48.17517852783203 37.77185821533203
C 64.593017578125 48.99896240234375 37.22306823730469
C 61.080543518066406 53.48366928100586 38.288482666015625
C 62.842506408691406 48.13689422607422 34.20745849609375
C 63.30073547363281 49.20393371582031 33.444950103759766
C 62.070068359375 52.50484085083008 33.27320861816406
C 60.99720001220703 49.899253845214844 33.03947067260742
C 62.905364990234375 51.871604919433594 39.876609802246094
C 63.687767028808594 50.665077209472656 39.30513381958008
C 63.32130432128906 52.88821029663086 38.79766845703125
C 64.66093444824219 51.10879135131836 38.368778228759766
C 64.13426208496094 51.346466064453125 33.6735954284668
C 59.80781555175781 50.35090255737305 38.810203552246094
C 62.38574981689453 53.651710510253906 38.115665435791016
C 64.45840454101562 52.445098876953125 38.043548583984375
C 60.488128662109375 53.8404541015625 37.106807708740234
C 65.41728210449219 50.64027786254883 36.054203033447266
C 63.09998321533203 49.40081787109375 39.0484504699707
C 61.43580627441406 48.201847076416016 38.3377799987793
C 58.88208770751953 51.98281478881836 37.35422134399414
C 59.42955780029297 49.32770538330078 37.967838287353516
C 62.407875061035156 50.1160888671875 32.864593505859375
C 63.61151123046875 48.57881164550781 38.11299133300781
C 65.18953704833984 51.9942741394043 35.77836608886719
C 58.76759338378906 51.4712028503418 35.1854248046875
C 59.214073181152344 52.766571044921875 35.268089294433594
C 61.37549591064453 53.87870407104492 34.88037872314453
C 63.70948028564453 53.42552947998047 34.777408599853516
C 61.25183868408203 47.56940841674805 35.71574783325195
C 63.4207763671875 47.877410888671875 35.4248161315918
C 62.47893524169922 53.531681060791016 34.1417236328125
C 60.54145050048828 48.810176849365234 33.78957748413086
C 61.151023864746094 51.795265197753906 41.46443557739258
N 62.13958740234375 52.106178283691406 42.141475677490234
C 63.391883850097656 52.27506637573242 41.29396057128906
H 64.13465881347656 51.546165466308594 41.628074645996094
H 63.819862365722656 53.2733039855957 41.416473388671875
C 57.497825622558594 51.77436447143555 43.76144790649414
C 57.529693603515625 52.3552360534668 42.465492248535156
H 56.63768005371094 52.90831756591797 42.182674407958984
C 58.667518615722656 52.3759765625 41.65562057495117
H 58.63716125488281 52.9117317199707 40.71031188964844
C 59.85389709472656 51.7606086730957 42.090965270996094
C 58.63096618652344 51.064178466796875 44.127349853515625
H 58.61030578613281 50.44501495361328 45.02053451538086
C 59.76996612548828 51.05131149291992 43.32756042480469
H 60.61858367919922 50.47562789916992 43.68812942504883
C 56.373130798339844 51.885986328125 44.7818717956543
C 55.194908142089844 52.579898834228516 44.41392517089844
C 54.986061096191406 53.919898986816406 44.0551643371582
H 55.77159118652344 54.643951416015625 43.86563491821289
C 53.56327819824219 54.097381591796875 43.86628723144531
H 53.1226806640625 55.05716323852539 43.617462158203125
C 52.97648620605469 52.903968811035156 44.227298736572266
N 53.94615173339844 52.04460906982422 44.456809997558594
H 53.71227264404297 51.09187698364258 44.701210021972656
C 51.57197570800781 52.63269805908203 44.296974182128906
H 50.94917297363281 53.330562591552734 43.73927688598633
C 50.79981231689453 51.66535186767578 44.925716400146484
C 49.71287536621094 51.10990905761719 44.31803512573242
H 49.263526916503906 51.43705368041992 43.38621520996094
C 49.470909118652344 49.96583938598633 45.05408477783203
H 48.74213409423828 49.190635681152344 44.84153366088867
C 50.404541015625 49.919281005859375 46.155174255371094
N 51.299522399902344 50.895362854003906 45.96324157714844
C 50.555519104003906 48.89430618286133 47.14895248413086
C 51.73097229003906 48.53286361694336 47.80402374267578
C 51.89567565917969 47.94288635253906 49.08563995361328
H 51.057334899902344 47.53252410888672 49.63882827758789
C 53.18510437011719 48.01979064941406 49.58338928222656
H 53.565162658691406 47.73912048339844 50.560123443603516
C 53.952354431152344 48.64330291748047 48.567413330078125
N 53.00196075439453 48.90113830566406 47.554447174072266
H 53.286659240722656 49.38738250732422 46.715023040771484
C 55.25237274169922 49.10246276855469 48.5871467590332
H 55.731163024902344 48.83030700683594 49.5266227722168
C 55.96985626220703 49.92420196533203 47.6577033996582
C 57.27497863769531 50.528106689453125 47.902076721191406
H 57.93780517578125 50.36604309082031 48.74565505981445
C 57.470001220703125 51.33071517944336 46.820919036865234
H 58.24639129638672 52.067100524902344 46.64153289794922
C 56.39991760253906 51.20011520385742 46.00165939331055
N 55.476707458496094 50.365753173828125 46.527870178222656
C 46.93994903564453 46.55061721801758 47.858768463134766
C 48.144554138183594 45.96281433105469 48.06916427612305
H 48.19966125488281 44.94784927368164 48.45436096191406
C 49.268470764160156 46.72287368774414 47.930355072021484
H 50.25489044189453 46.29038619995117 48.07699966430664
C 49.235626220703125 48.02768325805664 47.43381118774414
C 46.83576202392578 47.85161209106445 47.469482421875
H 45.849029541015625 48.21843338012695 47.198585510253906
C 47.95105743408203 48.60750198364258 47.249427795410156
H 47.84455108642578 49.611656188964844 46.847049713134766
N 45.89390563964844 45.68496322631836 48.04595184326172
H 45.7822265625 45.37110137939453 48.99836730957031
C 44.993125915527344 45.36185073852539 47.05363845825195
O 45.37303161621094 45.482261657714844 45.90598678588867
C 43.77763366699219 44.58790588378906 47.57746124267578
C 43.259971618652344 44.700862884521484 48.847991943359375
H 43.750732421875 45.37007141113281 49.550052642822266
C 42.23455047607422 43.88774871826172 49.27970886230469
C 41.675559997558594 42.989078521728516 48.434898376464844
H 40.82643127441406 42.51634216308594 48.92179870605469
C 42.111122131347656 42.87664794921875 47.11903381347656
H 41.76628875732422 42.1398811340332 46.39803695678711
C 43.16180419921875 43.66377258300781 46.68145751953125
H 43.631568908691406 43.65760040283203 45.70122528076172
C 41.668601989746094 44.18177032470703 50.657413482666016
H 42.23029327392578 44.97076416015625 51.155330657958984
C 40.652915954589844 43.612876892089844 51.32107162475586
H 40.122344970703125 42.7757453918457 50.86981964111328
C 40.11913299560547 43.91218185424805 52.600196838378906
C 40.80950164794922 44.899051666259766 53.46285629272461
H 41.64311218261719 45.398170471191406 52.96443176269531
H 41.15984344482422 44.330116271972656 54.32658767700195
H 40.125892639160156 45.6637077331543 53.83761215209961
C 39.09159851074219 43.26542663574219 53.21664810180664
H 38.531646728515625 42.52850341796875 52.64277648925781
C 38.42491149902344 43.57373046875 54.5026969909668
H 38.92234802246094 44.111000061035156 55.30881118774414
C 37.18310546875 43.24971389770508 54.822757720947266
H 36.61827087402344 42.70354461669922 54.06870651245117
C 36.52850341796875 43.4781379699707 56.076663970947266
C 35.82316207885742 42.343048095703125 56.668724060058594
H 34.79518508911133 42.535465240478516 56.98289108276367
H 35.876495361328125 41.57947540283203 55.889892578125
H 36.395408630371094 42.05923080444336 57.554420471191406
C 36.657901763916016 44.53973388671875 56.81596374511719
H 37.31184768676758 45.282127380371094 56.36084747314453
C 36.013545989990234 44.78279495239258 58.036949157714844
H 35.45612716674805 43.98005676269531 58.51737976074219
C 36.142887115478516 45.917686462402344 58.75640869140625
H 36.748435974121094 46.63642501831055 58.206275939941406
C 35.64934539794922 46.169857025146484 60.08434295654297
H 35.3192024230957 45.29951095581055 60.64952087402344
C 35.599159240722656 47.32384490966797 60.77127456665039
C 35.942405700683594 48.63630294799805 60.110877990722656
H 35.50135803222656 48.58946228027344 59.11301040649414
H 35.52530288696289 49.50142288208008 60.63054656982422
H 37.012535095214844 48.85135269165039 60.143150329589844
C 35.0050048828125 47.47245788574219 62.128971099853516
H 35.31355285644531 48.31686782836914 62.74353790283203
C 34.018253326416016 46.71537780761719 62.64450454711914
H 33.455596923828125 46.01137161254883 62.033180236816406
C 33.42047882080078 46.964111328125 63.90858459472656
H 33.9406852722168 47.69563674926758 64.52516174316406
C 32.28738784790039 46.51081848144531 64.48987579345703
C 31.274438858032227 45.61207580566406 63.73590087890625
H 31.16640281677246 45.93418884277344 62.698097229003906
H 31.715574264526367 44.613258361816406 63.75099182128906
H 30.279226303100586 45.6043701171875 64.18528747558594
C 31.894418716430664 46.9617919921875 65.80375671386719
H 32.67319107055664 46.80352020263672 66.54833221435547
C 30.673410415649414 47.44283676147461 66.13603973388672
H 29.854982376098633 47.57076644897461 65.42913055419922
C 30.348661422729492 47.95920181274414 67.50965118408203
C 31.225088119506836 48.71485137939453 68.24691772460938
C 32.65407180786133 49.143646240234375 67.90974426269531
H 32.73351287841797 49.2700080871582 66.82798767089844
H 32.892311096191406 50.167537689208984 68.20529174804688
H 33.457393646240234 48.45132064819336 68.17017364501953
C 31.080026626586914 48.9564323425293 69.78817749023438
H 31.6237735748291 49.81831359863281 70.18055725097656
H 31.5456485748291 48.0808219909668 70.24530792236328
C 29.612714767456055 49.07723617553711 70.1732406616211
H 29.21307945251465 49.95917510986328 69.66832733154297
H 29.5146427154541 49.25045394897461 71.2469482421875
C 28.9077205657959 47.791751861572266 69.6509780883789
H 29.175512313842773 46.90753173828125 70.2331314086914
H 27.835599899291992 47.82127380371094 69.85628509521484
C 29.022218704223633 47.5301628112793 68.10699462890625
C 28.777864456176758 46.086578369140625 67.9487533569336
H 27.91704750061035 45.7082405090332 68.50402069091797
H 28.560380935668945 45.82500076293945 66.91108703613281
H 29.65272331237793 45.520774841308594 68.27579498291016
C 27.809892654418945 48.2044677734375 67.4098129272461
H 27.980966567993164 49.23873519897461 67.7155532836914
H 27.810800552368164 48.22249221801758 66.31795501708984
H 26.902311325073242 47.80919647216797 67.87081909179688
