207
Triad, Carotenoid-Porphyrin-C60
C 50.49382019042969 54.91688537597656 54.78561019897461
C 46.542484283447266 57.03118896484375 50.05965042114258
C 45.9546012878418 56.21373748779297 52.165523529052734
C 47.02947235107422 55.88184356689453 54.33341598510742
C 48.41960144042969 58.07695007324219 48.89938735961914
C 47.4722785949707 56.98719787597656 49.04319381713867
C 47.43558120727539 59.130455017089844 50.88840866088867
C 46.88740921020508 58.06439971923828 53.3638801574707
C 50.777244567871094 57.13343811035156 54.884334564208984
C 48.379150390625 59.11164855957031 49.81461715698242
C 49.27484130859375 55.459815979003906 55.199886322021484
C 51.8619499206543 57.092132568359375 49.34957504272461
C 49.639137268066406 57.46892547607422 48.53367233276367
C 52.81863021850586 56.77874755859375 51.56867599487305
C 52.12724304199219 58.31574249267578 53.22116470336914
C 52.70039367675781 57.10057830810547 52.87772750854492
C 50.805335998535156 59.019500732421875 49.9216423034668
C 48.076656341552734 59.61720275878906 52.050899505615234
C 47.77867889404297 59.11320495605469 53.27595138549805
C 50.117855072021484 59.180625915527344 53.85781478881836
C 48.37513732910156 52.90507507324219 51.064022064208984
C 48.8215446472168 53.696868896484375 49.859989166259766
C 47.21785354614258 53.84931182861328 51.54355239868164
C 46.86227035522461 54.67893981933594 50.517696380615234
C 52.331512451171875 54.93097686767578 52.616275787353516
C 50.171112060546875 53.99443054199219 49.48383712768555
C 48.001644134521484 55.0006103515625 54.74580001831055
C 51.70012664794922 55.67607116699219 49.218746185302734
C 49.43141555786133 56.063438415527344 48.44253921508789
C 52.720951080322266 55.41551971435547 51.38955307006836
C 47.130741119384766 54.26313018798828 52.87009048461914
C 51.8004035949707 58.787940979003906 50.87007522583008
C 51.68235397338867 59.201881408691406 52.24813461303711
C 48.807979583740234 58.86869812011719 54.155330657958984
C 49.40024948120117 59.91334533691406 51.68266677856445
C 49.49185562133789 52.656822204589844 52.12392044067383
C 50.87673568725586 53.266380310058594 51.73533248901367
C 49.275733947753906 53.29261016845703 53.476993560791016
C 51.422637939453125 53.876731872558594 52.83433151245117
C 51.119911193847656 58.346519470214844 54.23104476928711
C 47.82193374633789 54.60071563720703 49.48874282836914
C 48.08927536010742 53.95368957519531 53.84200668334961
C 50.47756576538086 53.87742614746094 53.85935592651367
C 46.44445037841797 55.349571228027344 53.16535568237305
C 52.33797836303711 55.979156494140625 53.54170608520508
C 51.1414680480957 53.86186218261719 50.44257736206055
C 50.47477722167969 55.16853332519531 48.83381271362305
C 46.209415435791016 55.911888122558594 50.8101692199707
C 48.09988784790039 55.77727508544922 48.75016403198242
C 50.45001983642578 59.74091339111328 52.63389205932617
C 52.13364028930664 54.82688903808594 50.2437858581543
C 51.44748306274414 55.93958282470703 54.596309661865234
C 46.49721908569336 58.09043884277344 50.9957160949707
C 46.22382354736328 57.556007385253906 52.261356353759766
C 47.26590347290039 57.239891052246094 54.37649917602539
C 49.46332550048828 56.83146667480469 55.28279495239258
C 50.8184814453125 57.95690155029297 49.03645706176758
C 52.43022155761719 57.61914825439453 50.52493667602539
C 48.466365814208984 57.72510528564453 54.866825103759766
C 49.59574890136719 59.556114196777344 50.34738540649414
C 47.911170959472656 51.53926086425781 50.72098922729492
N 48.42146301269531 50.63268280029297 51.4367561340332
C 49.549076080322266 51.16704559326172 52.27626419067383
H 50.533294677734375 50.77418518066406 52.00864028930664
H 49.40404510498047 50.81903839111328 53.302181243896484
C 44.47642517089844 50.95927429199219 48.124149322509766
C 45.69139862060547 51.44671630859375 47.71676254272461
H 45.755409240722656 51.73320007324219 46.67014694213867
C 46.73173141479492 51.674293518066406 48.5591926574707
H 47.62520980834961 52.003021240234375 48.03459548950195
C 46.72294235229492 51.26298522949219 49.87154006958008
C 44.46138000488281 50.608558654785156 49.49838638305664
H 43.53135681152344 50.258888244628906 49.93925094604492
C 45.584022521972656 50.70147705078125 50.346866607666016
H 45.548038482666016 50.52251434326172 51.41842269897461
C 43.27429962158203 50.784454345703125 47.15654373168945
C 43.52665710449219 50.93114471435547 45.74654006958008
C 43.909202575683594 52.021446228027344 45.039310455322266
H 44.362144470214844 52.93854522705078 45.4012565612793
C 43.68107986450195 51.75544738769531 43.660823822021484
H 43.7584114074707 52.42454528808594 42.81020736694336
C 43.055259704589844 50.557952880859375 43.60049819946289
N 43.070613861083984 50.023040771484375 44.839290618896484
H 42.80622482299805 49.07792663574219 45.082157135009766
C 42.71054458618164 49.770530700683594 42.39426040649414
H 42.770286560058594 50.38764953613281 41.49898147583008
C 42.120269775390625 48.51787567138672 42.21523666381836
C 41.9182014465332 47.94548797607422 40.92307662963867
H 42.31013870239258 48.33888244628906 39.9909553527832
C 41.23808288574219 46.78266143798828 41.17759323120117
H 40.7252311706543 46.13658905029297 40.47275924682617
C 41.15022277832031 46.688812255859375 42.6139030456543
N 41.744529724121094 47.74250030517578 43.202457427978516
C 40.561981201171875 45.662994384765625 43.485050201416016
C 39.86253356933594 46.074012756347656 44.59933090209961
C 38.46048355102539 45.804290771484375 44.83745193481445
H 37.7762336730957 45.25133514404297 44.20241928100586
C 38.116580963134766 46.42646026611328 46.062191009521484
H 37.17024230957031 46.44146728515625 46.59270095825195
C 39.23080825805664 47.18049621582031 46.56928634643555
N 40.173973083496094 46.891395568847656 45.596126556396484
H 41.11860275268555 47.23609924316406 45.70090866088867
C 39.25569534301758 48.03868103027344 47.56399154663086
H 38.36537551879883 48.11388397216797 48.18656539916992
C 40.25209045410156 49.05987548828125 47.888065338134766
C 40.18347930908203 50.107391357421875 48.88258743286133
H 39.381935119628906 50.31946563720703 49.58243179321289
C 41.3643913269043 50.797271728515625 48.70143508911133
H 41.637386322021484 51.64208984375 49.32511520385742
C 42.056522369384766 50.255516052246094 47.62063217163086
N 41.37981414794922 49.171546936035156 47.19241714477539
C 41.46141052246094 41.428367614746094 42.8625373840332
C 40.62444305419922 41.83777618408203 43.88412857055664
H 40.23099136352539 41.07471466064453 44.550838470458984
C 40.324310302734375 43.205963134765625 44.117618560791016
H 39.73501205444336 43.63970184326172 44.92146682739258
C 40.83714294433594 44.17083740234375 43.169857025146484
C 42.00484848022461 42.37989807128906 41.9811897277832
H 42.58867645263672 41.947654724121094 41.17256546020508
C 41.598201751708984 43.74461364746094 42.08780288696289
H 41.84981155395508 44.46019744873047 41.3092155456543
N 42.02698516845703 40.132354736328125 42.78083419799805
H 43.03273010253906 40.122840881347656 42.700374603271484
C 41.36857604980469 38.929115295410156 42.7629508972168
O 40.163578033447266 38.85041046142578 42.798221588134766
C 42.286033630371094 37.73682403564453 42.68135452270508
C 43.62520980834961 37.882652282714844 43.067806243896484
H 43.950069427490234 38.80384826660156 43.54470443725586
C 44.538211822509766 36.82952880859375 42.87314224243164
C 44.1028938293457 35.65380096435547 42.28219223022461
H 44.88655471801758 34.977264404296875 41.950923919677734
C 42.80904769897461 35.38813018798828 41.9714241027832
H 42.635101318359375 34.459320068359375 41.43418502807617
C 41.91128158569336 36.470458984375 42.0466423034668
H 40.87225341796875 36.376365661621094 41.741458892822266
C 46.00446701049805 37.08760070800781 43.12929916381836
H 46.26517105102539 38.01006317138672 43.64604568481445
C 47.13981628417969 36.3133544921875 42.97294235229492
H 47.16463851928711 35.37400817871094 42.422550201416016
C 48.49918746948242 36.78192901611328 43.12712478637695
C 49.59614944458008 35.829925537109375 42.68606185913086
H 50.07603454589844 35.37933349609375 43.55734634399414
H 50.3167724609375 36.23634338378906 41.973323822021484
H 49.145835876464844 35.013397216796875 42.11776351928711
C 48.862464904785156 37.99541473388672 43.63325881958008
H 48.06416320800781 38.617645263671875 44.03507614135742
C 50.15244674682617 38.549293518066406 43.86921310424805
H 51.013206481933594 37.98872375488281 43.5075798034668
C 50.27379608154297 39.75238037109375 44.3486442565918
H 49.408836364746094 40.40459442138672 44.459964752197266
C 51.423583984375 40.483154296875 44.77925491333008
C 52.74011993408203 40.18926239013672 44.13181686401367
H 53.489662170410156 40.007469177246094 44.90486526489258
H 52.71809768676758 39.439292907714844 43.3383903503418
H 53.05617141723633 41.130470275878906 43.677181243896484
C 51.43083953857422 41.51091766357422 45.60457992553711
H 50.39793395996094 41.677955627441406 45.90644454956055
C 52.475711822509766 42.231048583984375 46.2465934753418
H 53.445770263671875 42.44415283203125 45.79994583129883
C 52.30667495727539 42.71772003173828 47.50569534301758
H 51.38605880737305 42.37864685058594 47.97835922241211
C 53.28459167480469 43.43632507324219 48.311214447021484
H 54.227745056152344 43.736328125 47.856929779052734
C 53.03506851196289 44.130958557128906 49.493282318115234
C 51.61671447753906 44.08390808105469 50.10000991821289
H 50.93513870239258 44.759002685546875 49.57831954956055
H 51.319576263427734 43.047149658203125 49.92879867553711
H 51.73628234863281 44.227394104003906 51.17592239379883
C 53.83310317993164 45.215362548828125 50.08218765258789
H 53.196815490722656 45.989898681640625 50.5078010559082
C 55.1386604309082 45.47882843017578 50.06747817993164
H 55.853248596191406 44.81818389892578 49.57876968383789
C 55.718563079833984 46.594635009765625 50.75862503051758
H 55.074012756347656 47.18910217285156 51.40444564819336
C 56.9951057434082 47.02051544189453 50.77773666381836
C 58.027244567871094 46.280357360839844 50.01527786254883
H 57.77322769165039 46.21833038330078 48.95504379272461
H 59.03798294067383 46.692771911621094 49.98728561401367
H 58.15910720825195 45.30377960205078 50.48579025268555
C 57.48186111450195 48.13628387451172 51.576602935791016
H 58.505043029785156 48.45494079589844 51.38300704956055
C 57.052574157714844 48.44593048095703 52.792118072509766
H 56.296180725097656 47.80729675292969 53.24592971801758
C 57.71811294555664 49.35337829589844 53.76658248901367
C 58.05172348022461 50.62147521972656 53.424259185791016
C 58.11288833618164 51.275108337402344 52.081668853759766
H 57.5000114440918 50.816139221191406 51.30308151245117
H 57.842586517333984 52.32147216796875 52.23830032348633
H 59.15974807739258 51.202239990234375 51.77962112426758
C 58.71939468383789 51.558815002441406 54.45817947387695
H 58.27511978149414 52.54895782470703 54.33693313598633
H 59.68012619018555 51.72447967529297 53.96622848510742
C 58.78962326049805 51.16534423828125 55.92148971557617
H 57.82695770263672 51.4144287109375 56.37282180786133
H 59.5242919921875 51.743873596191406 56.48542404174805
C 58.92473602294922 49.610130310058594 56.02394485473633
H 59.9039306640625 49.36602783203125 55.606754302978516
H 58.96179962158203 49.24798583984375 57.0534782409668
C 57.890541076660156 48.83667755126953 55.20103073120117
C 58.20954132080078 47.35638427734375 55.3054313659668
H 59.03252029418945 47.181983947753906 54.60918045043945
H 58.487464904785156 47.029014587402344 56.309452056884766
H 57.374122619628906 46.763938903808594 54.92656326293945
C 56.55047607421875 48.890174865722656 55.97823715209961
H 56.62726593017578 48.35704803466797 56.92815017700195
H 56.26505661010742 49.88409423828125 56.329105377197266
H 55.7164192199707 48.581024169921875 55.344791412353516
