207
Triad, Carotenoid-Porphyrin-C60
C 38.56237030029297 33.67405319213867 54.99388885498047
C 44.251380920410156 36.14712905883789 53.57693099975586
C 43.68208312988281 34.8019905090332 55.26411437988281
C 41.93751907348633 33.203460693359375 55.81833267211914
C 43.44371795654297 36.798439025878906 51.42633819580078
C 43.78734588623047 37.12737274169922 52.71509552001953
C 43.94221878051758 34.531517028808594 51.748779296875
C 43.24882888793945 32.80996322631836 53.8272705078125
C 39.0472412109375 32.37063980102539 53.24322509765625
C 43.576805114746094 35.50313186645508 50.88195037841797
C 39.663368225097656 32.90126037597656 55.341636657714844
C 40.019344329833984 37.289955139160156 50.573970794677734
C 42.302490234375 37.58238220214844 51.08204650878906
C 38.2110710144043 35.766841888427734 51.16581726074219
C 38.9294319152832 33.457889556884766 50.96311569213867
C 38.088985443115234 34.39884567260742 51.47444152832031
C 41.34675216674805 35.72370147705078 49.76804733276367
C 43.27214813232422 33.38706588745117 51.493019104003906
C 42.907958984375 32.497615814208984 52.52509689331055
C 40.75642013549805 32.21104431152344 51.55349349975586
C 40.829219818115234 37.68476867675781 56.145469665527344
C 41.215248107910156 38.40092086791992 54.84355926513672
C 41.960540771484375 36.72311019897461 56.2598762512207
C 42.96472930908203 37.0776252746582 55.317222595214844
C 37.63117599487305 35.62176513671875 53.28946304321289
C 40.307456970214844 38.57235336303711 53.821632385253906
C 40.65550994873047 33.43775939941406 56.139339447021484
C 39.6507453918457 38.08997344970703 51.653106689453125
C 41.98275375366211 38.37964630126953 52.15957260131836
C 37.95610809326172 36.45734786987305 52.29115295410156
C 41.803096771240234 35.37583923339844 56.603965759277344
C 40.04721450805664 35.199371337890625 49.76619338989258
C 39.947208404541016 33.85005569458008 50.13497543334961
C 41.66789245605469 31.92764663696289 52.57836151123047
C 42.36366271972656 33.616920471191406 50.46734619140625
C 39.424896240234375 37.02110290527344 56.229976654052734
C 38.593788146972656 37.10219955444336 54.93947982788086
C 39.338802337646484 35.49034118652344 56.3149299621582
C 37.97032165527344 35.935218811035156 54.62760925292969
C 39.44120407104492 32.488243103027344 51.89646911621094
C 42.54861068725586 38.09944534301758 54.49271774291992
C 40.50520706176758 34.727294921875 56.61470413208008
C 38.38767623901367 34.9576301574707 55.43363571166992
C 42.61797332763672 34.38576889038086 56.08204650878906
C 37.66486358642578 34.303062438964844 52.820743560791016
C 39.02006530761719 37.98508071899414 53.8762092590332
C 40.66392135620117 38.692543029785156 52.487030029296875
C 43.843441009521484 36.1112174987793 54.859413146972656
C 42.90450668334961 38.11184310913086 53.148681640625
C 41.11229705810547 33.04719543457031 50.45515441894531
C 38.593257904052734 37.729698181152344 52.54751205444336
C 38.19535446166992 33.33802032470703 53.69551467895508
C 44.297332763671875 34.86229705810547 53.094932556152344
C 43.906951904296875 34.01387023925781 54.1098518371582
C 42.257320404052734 32.370113372802734 54.73721694946289
C 39.9958381652832 32.067142486572266 54.2379150390625
C 41.296424865722656 37.000423431396484 50.27205276489258
C 39.22172927856445 36.17105484008789 50.289337158203125
C 41.265174865722656 31.808208465576172 53.934669494628906
C 42.53705978393555 34.95106887817383 50.096275329589844
C 40.750423431396484 38.73716735839844 57.291770935058594
N 39.75230407714844 38.61796569824219 58.069610595703125
C 38.7519645690918 37.768009185791016 57.41754913330078
H 37.974422454833984 38.39503479003906 56.97378921508789
H 38.28944778442383 37.16658020019531 58.204322814941406
C 43.6784782409668 41.79526138305664 58.36722946166992
C 44.01215362548828 40.45549774169922 58.25307846069336
H 45.04783248901367 40.20328140258789 58.46598434448242
C 43.1226806640625 39.39321517944336 57.912654876708984
H 43.4686164855957 38.364688873291016 57.84916687011719
C 41.787811279296875 39.735530853271484 57.68140411376953
C 42.332462310791016 42.053401947021484 58.0986442565918
H 41.994625091552734 43.085208892822266 58.04564666748047
C 41.45498275756836 41.122642517089844 57.63645935058594
H 40.4257926940918 41.42015838623047 57.45257568359375
C 44.647979736328125 42.91158676147461 58.72291564941406
C 46.074562072753906 42.57334899902344 58.91476821899414
C 46.7723388671875 42.17183303833008 60.064483642578125
H 46.24506378173828 42.027896881103516 61.00176239013672
C 48.162574768066406 42.12173080444336 59.85554885864258
H 48.93366241455078 41.921165466308594 60.592041015625
C 48.30854797363281 42.63703918457031 58.55936813354492
N 47.042659759521484 42.766990661621094 58.0118522644043
H 46.85398483276367 43.018192291259766 57.050907135009766
C 49.46820831298828 42.8895149230957 57.748504638671875
H 50.35641860961914 42.29549789428711 57.9586181640625
C 49.610877990722656 43.657989501953125 56.59219741821289
C 49.86629867553711 43.045711517333984 55.37397384643555
H 50.07940673828125 41.98414611816406 55.304080963134766
C 49.744022369384766 44.0543098449707 54.45247268676758
H 49.76639938354492 43.99262237548828 53.36945724487305
C 49.36777114868164 45.225303649902344 55.12429428100586
N 49.25767517089844 44.94328689575195 56.42222213745117
C 48.950584411621094 46.48905563354492 54.4890251159668
C 47.87184143066406 47.209144592285156 54.954978942871094
C 47.7407341003418 48.62705993652344 55.186012268066406
H 48.39426040649414 49.432098388671875 54.8665771484375
C 46.638919830322266 48.911720275878906 55.9486083984375
H 46.26183319091797 49.87261199951172 56.282840728759766
C 46.08136749267578 47.686370849609375 56.38746643066406
N 46.84360885620117 46.78566360473633 55.72610855102539
H 46.78779983520508 45.793739318847656 55.913429260253906
C 44.96891784667969 47.507225036621094 57.16114807128906
H 44.386409759521484 48.37196350097656 57.475521087646484
C 44.40013122558594 46.293033599853516 57.74948501586914
C 43.27883529663086 46.17197036743164 58.62431335449219
H 42.696537017822266 47.03177261352539 58.93880844116211
C 43.20291519165039 44.836212158203125 59.021339416503906
H 42.593101501464844 44.45073318481445 59.83174514770508
C 44.2037239074707 44.17803955078125 58.38957214355469
N 44.83369064331055 45.009220123291016 57.60337829589844
C 51.237762451171875 47.996559143066406 51.057106018066406
C 50.09815979003906 48.62901306152344 51.486995697021484
H 49.80654525756836 49.49530029296875 50.898712158203125
C 49.30010223388672 48.145599365234375 52.588218688964844
H 48.41715621948242 48.73591613769531 52.81953430175781
C 49.75897979736328 47.04060745239258 53.321876525878906
C 51.6112060546875 46.87053298950195 51.737876892089844
H 52.57694625854492 46.458465576171875 51.45661544799805
C 50.9557991027832 46.441471099853516 52.85219192504883
H 51.38237380981445 45.673492431640625 53.49236297607422
N 52.03923416137695 48.44024658203125 50.00790023803711
H 52.75537109375 47.7579345703125 49.808712005615234
C 52.002586364746094 49.51646423339844 49.15375518798828
O 51.07482147216797 50.26184844970703 49.221336364746094
C 53.118621826171875 49.67950439453125 48.19559860229492
C 52.945213317871094 50.50585174560547 47.10424041748047
H 51.9503288269043 50.93407440185547 47.012577056884766
C 54.08390426635742 50.908775329589844 46.37984848022461
C 55.27460861206055 50.25507354736328 46.529022216796875
H 56.170982360839844 50.58979034423828 46.013221740722656
C 55.375511169433594 49.309898376464844 47.50239181518555
H 56.288604736328125 48.73584747314453 47.63765335083008
C 54.344322204589844 49.094703674316406 48.36121368408203
H 54.53811264038086 48.426429748535156 49.19633865356445
C 53.943302154541016 51.95594787597656 45.36530685424805
H 52.92366409301758 52.332862854003906 45.30056381225586
C 54.851627349853516 52.55426025390625 44.54887008666992
H 55.87276840209961 52.194984436035156 44.66764450073242
C 54.77357864379883 53.79631805419922 43.75337219238281
C 53.433528900146484 54.349632263183594 43.305606842041016
H 53.12164306640625 55.28355407714844 43.77781295776367
H 52.65631866455078 53.69141387939453 43.69951248168945
H 53.33536148071289 54.498435974121094 42.22825241088867
C 55.86865234375 54.478111267089844 43.366539001464844
H 56.824275970458984 54.109413146972656 43.73635482788086
C 55.951210021972656 55.808616638183594 42.7043342590332
H 55.03959655761719 56.29389953613281 42.358802795410156
C 57.09288787841797 56.40795135498047 42.34996795654297
H 57.988807678222656 55.87267303466797 42.66097640991211
C 57.25392150878906 57.67909240722656 41.69099044799805
C 58.66554641723633 58.23511505126953 41.79554748535156
H 59.356544494628906 57.55683135986328 42.300437927246094
H 59.21895980834961 58.34223937988281 40.86027908325195
H 58.68586730957031 59.15446472167969 42.384490966796875
C 56.299686431884766 58.35840606689453 41.021324157714844
H 55.31675338745117 57.893280029296875 40.96282196044922
C 56.508544921875 59.66935729980469 40.375694274902344
H 57.547760009765625 59.904762268066406 40.15088653564453
C 55.457366943359375 60.46929931640625 40.04613494873047
H 54.450599670410156 60.264251708984375 40.40709686279297
C 55.7144775390625 61.68003845214844 39.321292877197266
H 56.7497673034668 61.86621856689453 39.03944778442383
C 54.83047866821289 62.609397888183594 39.08426284790039
C 53.384273529052734 62.37348175048828 39.434425354003906
H 52.69784164428711 63.152015686035156 39.09508514404297
H 53.01475143432617 61.441246032714844 39.00215530395508
H 53.182247161865234 62.33747100830078 40.5069694519043
C 55.09765625 63.831703186035156 38.3756217956543
H 54.38622283935547 64.6553726196289 38.412384033203125
C 56.3082389831543 64.22846221923828 37.82371520996094
H 57.227943420410156 63.6478271484375 37.87785339355469
C 56.456031799316406 65.54188537597656 37.06703186035156
H 55.564884185791016 66.16184997558594 36.98088073730469
C 57.57594680786133 65.94065856933594 36.44889450073242
C 58.81404495239258 65.248291015625 36.6511116027832
H 59.06596755981445 65.30828094482422 37.71196365356445
H 58.66400909423828 64.22345733642578 36.30518341064453
H 59.6243782043457 65.53516387939453 35.977664947509766
C 57.66681671142578 67.14368438720703 35.59524154663086
H 58.092529296875 67.08198547363281 34.59480285644531
C 57.103363037109375 68.3078842163086 35.92626190185547
H 56.70812225341797 68.41544342041016 36.9352912902832
C 57.05352020263672 69.57469177246094 35.12976837158203
C 58.19865417480469 70.26826477050781 34.8043212890625
C 59.635337829589844 69.90302276611328 35.161460876464844
H 60.489646911621094 70.295654296875 34.60606384277344
H 59.88761520385742 69.97876739501953 36.22121810913086
H 59.71196365356445 68.82008361816406 35.043861389160156
C 58.24420928955078 71.55036926269531 33.97509765625
H 58.474910736083984 71.0878677368164 33.01315689086914
H 59.11621856689453 72.17024230957031 34.19376754760742
C 56.859928131103516 72.34040832519531 34.06740188598633
H 56.70457077026367 73.19152069091797 33.401119232177734
H 56.64332580566406 72.74406433105469 35.05866622924805
C 55.70309829711914 71.32706451416016 33.79892349243164
H 54.746395111083984 71.83052825927734 33.644920349121094
H 55.728206634521484 71.01163482666016 32.7537727355957
C 55.644805908203125 70.17158508300781 34.828155517578125
C 54.983882904052734 70.63392639160156 36.11491394042969
H 55.7167854309082 71.36701965332031 36.45828628540039
H 53.993675231933594 71.09383392333984 36.093902587890625
H 54.903228759765625 69.8857650756836 36.906253814697266
C 54.75532913208008 69.0936050415039 34.251197814941406
H 55.042694091796875 68.86160278320312 33.223548889160156
H 54.73979187011719 68.209716796875 34.89226531982422
H 53.753662109375 69.52848052978516 34.25275802612305
