207
Triad, Carotenoid-Porphyrin-C60
C 53.137271881103516 63.50005340576172 47.034664154052734
C 50.57538986206055 57.768402099609375 46.40920639038086
C 52.03654861450195 58.73103332519531 45.060791015625
C 53.601627349853516 60.560150146484375 45.15553665161133
C 49.6524772644043 57.915733337402344 48.60633087158203
C 49.49631881713867 57.956077575683594 47.30260467529297
C 52.01961898803711 57.41638946533203 48.23738479614258
C 53.850894927978516 58.65662384033203 46.6307258605957
C 54.251651763916016 62.412269592285156 48.67390823364258
C 50.924678802490234 57.5631103515625 49.1118049621582
C 53.86220932006836 62.56639862060547 46.43728256225586
C 49.1419792175293 60.83576202392578 50.568843841552734
C 48.88258743286133 58.84272766113281 49.28274154663086
C 50.79005813598633 62.68833923339844 50.644962310791016
C 53.022159576416016 61.794837951660156 50.63829803466797
C 52.14204788208008 62.83563232421875 50.42660903930664
C 50.61530685424805 59.19703674316406 50.937496185302734
C 53.10123062133789 57.946983337402344 48.82535934448242
C 54.05459213256836 58.50801086425781 47.97309875488281
C 54.33454513549805 60.24494171142578 49.67206573486328
C 49.234737396240234 61.908668518066406 44.89862823486328
C 48.40425491333008 61.113555908203125 46.00239944458008
C 50.18342971801758 60.77953338623047 44.49406051635742
C 49.70206832885742 59.56352996826172 44.982627868652344
C 51.03731918334961 63.920684814453125 48.81504440307617
C 48.08755874633789 61.611900329589844 47.3177604675293
C 53.39925765991211 61.96143341064453 45.284698486328125
C 48.43178176879883 61.538536071777344 49.54684066772461
C 48.19602584838867 59.45880126953125 48.291263580322266
C 50.079341888427734 63.31901550292969 49.68072509765625
C 51.53351974487305 60.98737335205078 44.352657318115234
C 51.23856735229492 60.338348388671875 51.22145080566406
C 52.553279876708984 60.540191650390625 50.92723846435547
C 54.64595413208008 59.68914031982422 48.40288543701172
C 52.731815338134766 58.450897216796875 50.0308952331543
C 49.867191314697266 63.22589111328125 45.39264678955078
C 49.61185836791992 63.53575134277344 46.842628479003906
C 51.31443405151367 63.286865234375 45.39863967895508
C 50.79326248168945 64.06475067138672 47.43765640258789
C 54.16695022583008 61.59026336669922 49.81083297729492
C 48.65166091918945 59.75086975097656 45.90983581542969
C 52.06320571899414 62.21648406982422 44.86030197143555
C 51.83894729614258 63.85395050048828 46.56626892089844
C 52.436031341552734 59.96697998046875 44.63220977783203
C 52.28670883178711 63.67491912841797 49.34893798828125
C 48.722774505615234 62.784629821777344 47.727176666259766
C 47.910884857177734 60.82532501220703 48.44692611694336
C 50.692745208740234 58.57086181640625 45.3033332824707
C 48.53105545043945 58.900108337402344 47.03121566772461
C 53.40928268432617 59.60070037841797 50.44627380371094
C 48.91421127319336 62.72381591796875 49.10604476928711
C 53.3199348449707 63.394744873046875 48.392982482910156
C 51.78793716430664 57.52056121826172 46.90507125854492
C 52.71470260620117 58.090240478515625 46.068870544433594
C 54.29411697387695 59.870819091796875 46.17533874511719
C 54.60734939575195 61.86024475097656 47.397159576416016
C 49.355281829833984 59.499267578125 50.423912048339844
C 50.30483627319336 61.404685974121094 51.020015716552734
C 54.85361099243164 60.50690460205078 47.26243209838867
C 51.38887405395508 58.16687774658203 50.275230407714844
C 48.40097427368164 62.27996063232422 43.71810531616211
N 48.443302154541016 63.50868225097656 43.446502685546875
C 49.20048904418945 64.20661926269531 44.49842071533203
H 48.54207229614258 64.99290466308594 44.876426696777344
H 49.954532623291016 64.90170288085938 44.12034606933594
C 46.84567642211914 59.334442138671875 41.007911682128906
C 48.202518463134766 59.77241516113281 40.91183090209961
H 48.87692642211914 59.31394958496094 40.193115234375
C 48.73325729370117 60.67340087890625 41.78334045410156
H 49.78866958618164 60.88359069824219 41.63006591796875
C 47.91556167602539 61.26666259765625 42.7563591003418
C 46.11247634887695 59.83997344970703 42.07749938964844
H 45.10965347290039 59.45476531982422 42.24342346191406
C 46.60862350463867 60.81666564941406 42.91655349731445
H 46.0038948059082 61.13600158691406 43.761478424072266
C 46.30253219604492 58.229225158691406 40.08278274536133
C 47.19389724731445 57.69630432128906 39.095943450927734
C 47.9196891784668 58.359466552734375 38.12476348876953
H 47.82224655151367 59.43120574951172 37.98653793334961
C 48.7535285949707 57.415069580078125 37.5792350769043
H 49.57230758666992 57.583351135253906 36.88748550415039
C 48.470706939697266 56.177467346191406 38.03915023803711
N 47.48106002807617 56.412071228027344 38.88082504272461
H 47.1589241027832 55.65544891357422 39.468936920166016
C 49.148685455322266 54.93122100830078 38.01740646362305
H 50.1857795715332 54.98059844970703 37.688880920410156
C 48.78718948364258 53.772003173828125 38.671974182128906
C 49.74233627319336 52.886436462402344 39.29005432128906
H 50.81950759887695 52.95634460449219 39.18031692504883
C 48.92795181274414 52.039695739746094 39.98706817626953
H 49.254886627197266 51.28578186035156 40.695552825927734
C 47.54673385620117 52.25909423828125 39.72333526611328
N 47.512454986572266 53.367767333984375 38.96028518676758
C 46.35563278198242 51.630775451660156 40.36174774169922
C 45.10933303833008 52.25202941894531 40.55906677246094
C 43.80522537231445 51.65361022949219 40.50797653198242
H 43.69834518432617 50.57450866699219 40.544681549072266
C 42.824527740478516 52.596778869628906 40.43186950683594
H 41.776859283447266 52.33357238769531 40.330177307128906
C 43.410465240478516 53.86297607421875 40.41781997680664
N 44.77872085571289 53.566253662109375 40.51299285888672
H 45.518985748291016 54.25205993652344 40.45143127441406
C 42.72212600708008 55.066802978515625 40.3813362121582
H 41.63544845581055 55.081504821777344 40.31166076660156
C 43.31931686401367 56.37922668457031 40.35414123535156
C 42.76975631713867 57.73408508300781 40.3961067199707
H 41.703922271728516 57.9190673828125 40.47982406616211
C 43.87619400024414 58.5992431640625 40.23666000366211
H 43.7905387878418 59.67573547363281 40.131492614746094
C 44.97731399536133 57.788795471191406 40.29172134399414
N 44.6573371887207 56.4920654296875 40.228675842285156
C 46.95125198364258 47.62846374511719 41.73262405395508
C 45.88991165161133 48.345787048339844 42.25723648071289
H 45.2259407043457 47.93553924560547 43.013816833496094
C 45.64870834350586 49.64788055419922 41.899845123291016
H 44.9522819519043 50.26335144042969 42.46354675292969
C 46.47822189331055 50.209259033203125 40.86064910888672
C 47.729915618896484 48.13142395019531 40.72198486328125
H 48.475093841552734 47.53312683105469 40.20399475097656
C 47.4935417175293 49.40034484863281 40.308780670166016
H 48.047611236572266 49.890892028808594 39.512577056884766
N 47.0917854309082 46.245826721191406 42.01304244995117
H 47.278873443603516 45.704017639160156 41.18267059326172
C 46.96220016479492 45.626182556152344 43.21654510498047
O 46.9738655090332 46.245887756347656 44.24822235107422
C 46.77504348754883 44.167266845703125 43.21984100341797
C 46.91464614868164 43.54503631591797 44.504791259765625
H 47.243595123291016 44.13615417480469 45.35563278198242
C 46.66376876831055 42.187477111816406 44.72399139404297
C 46.18861770629883 41.480857849121094 43.58279037475586
H 45.9799690246582 40.43231201171875 43.77923583984375
C 45.97947311401367 42.07881164550781 42.31924057006836
H 45.601261138916016 41.485931396484375 41.4903678894043
C 46.27406692504883 43.431861877441406 42.15593719482422
H 46.06850051879883 43.972145080566406 41.235389709472656
C 46.9633674621582 41.50720977783203 45.99431228637695
H 47.2061653137207 42.235008239746094 46.76715850830078
C 47.00809097290039 40.16584014892578 46.41416549682617
H 46.77707290649414 39.303245544433594 45.79088592529297
C 47.374576568603516 39.65081024169922 47.77412033081055
C 47.578739166259766 40.637542724609375 48.884464263916016
H 48.59760665893555 41.027801513671875 48.838958740234375
H 47.446956634521484 40.23670196533203 49.89165115356445
H 46.916011810302734 41.501319885253906 48.79994583129883
C 47.55795669555664 38.34516906738281 48.06327438354492
H 47.3588752746582 37.70836639404297 47.20259475708008
C 48.01395034790039 37.6514892578125 49.26213455200195
H 48.420284271240234 38.27751922607422 50.0551643371582
C 48.01218795776367 36.30345153808594 49.37648010253906
H 47.60811996459961 35.712684631347656 48.55571746826172
C 48.403324127197266 35.52582550048828 50.52433776855469
C 49.04526901245117 34.2125244140625 50.1610221862793
H 49.42740249633789 34.227989196777344 49.138179779052734
H 49.866214752197266 34.050872802734375 50.86271286010742
H 48.33479690551758 33.386314392089844 50.08970642089844
C 48.052066802978516 35.87823486328125 51.765106201171875
H 47.5222282409668 36.82853698730469 51.81103515625
C 48.40756607055664 35.1741943359375 53.04487991333008
H 48.82844924926758 34.170204162597656 53.01673889160156
C 48.228511810302734 35.81018829345703 54.20537185668945
H 47.926021575927734 36.855934143066406 54.17625045776367
C 48.57767868041992 35.292503356933594 55.53224563598633
H 49.12239456176758 34.356475830078125 55.646514892578125
C 48.216373443603516 35.89466094970703 56.726173400878906
C 47.38473129272461 37.17029571533203 56.770172119140625
H 47.10224533081055 37.59679412841797 57.73493194580078
H 47.89167404174805 37.964630126953125 56.21834945678711
H 46.4660758972168 37.00917053222656 56.20221710205078
C 48.385257720947266 35.34858703613281 58.05900192260742
H 48.3646354675293 36.12274169921875 58.82463073730469
C 48.52043533325195 34.05602264404297 58.433319091796875
H 48.44575119018555 33.235145568847656 57.72162628173828
C 48.79045486450195 33.452911376953125 59.73322677612305
H 49.18210983276367 34.18865966796875 60.434078216552734
C 48.41677474975586 32.25810241699219 60.11930847167969
C 47.81570816040039 31.23709487915039 59.19728088378906
H 48.423404693603516 31.290138244628906 58.29155349731445
H 47.94956588745117 30.26068878173828 59.66757583618164
H 46.7635612487793 31.44293212890625 58.98971939086914
C 48.629520416259766 31.82095718383789 61.48523712158203
H 48.30311965942383 32.55575180053711 62.21971893310547
C 49.2824821472168 30.738025665283203 61.976497650146484
H 49.66019058227539 29.962779998779297 61.31148147583008
C 49.43693923950195 30.344093322753906 63.34546661376953
C 49.57295608520508 31.287364959716797 64.34158325195312
C 49.82138442993164 32.767250061035156 64.26803588867188
H 48.78676223754883 33.11579132080078 64.24470520019531
H 50.3397102355957 33.16764831542969 65.14180755615234
H 50.4760627746582 32.92025375366211 63.40754699707031
C 49.61709213256836 30.915573120117188 65.78124237060547
H 48.60505294799805 30.90561294555664 66.1913070678711
H 50.100704193115234 31.65328598022461 66.4249496459961
C 49.99984359741211 29.446941375732422 66.06314849853516
H 49.75069046020508 29.144248962402344 67.08235168457031
H 51.08487319946289 29.355728149414062 65.98037719726562
C 49.22702407836914 28.549072265625 65.16143798828125
H 49.44662857055664 27.525909423828125 65.47349548339844
H 48.23906326293945 28.859012603759766 65.50833892822266
C 49.51801681518555 28.825904846191406 63.68556213378906
C 50.80998611450195 28.213268280029297 63.3161735534668
H 51.64803695678711 28.504261016845703 63.95292282104492
H 50.783878326416016 27.129268646240234 63.18682861328125
H 51.09237289428711 28.563262939453125 62.32107162475586
C 48.398685455322266 28.004249572753906 62.9737548828125
H 48.35574722290039 26.97270965576172 63.329471588134766
H 47.46013259887695 28.519344329833984 63.188838958740234
H 48.414791107177734 27.965438842773438 61.882564544677734
