207
Triad, Carotenoid-Porphyrin-C60
C 33.03042221069336 45.499935150146484 52.695030212402344
C 37.26319122314453 42.60956573486328 56.705322265625
C 37.18258285522461 44.70881652832031 55.99394989013672
C 35.57170486450195 46.338260650634766 55.03119659423828
C 35.781978607177734 40.6450309753418 56.73570251464844
C 36.9085578918457 41.31650161743164 56.26264190673828
C 35.29378890991211 42.65008544921875 58.071807861328125
C 35.208717346191406 45.29492950439453 57.178131103515625
C 31.687637329101562 45.3428955078125 54.49693298339844
C 34.97392654418945 41.35454177856445 57.64756774902344
C 33.57777404785156 46.27983856201172 53.67439270019531
C 33.21806335449219 39.89866638183594 54.425323486328125
C 35.199886322021484 39.898468017578125 55.749794006347656
C 31.65093231201172 41.42918395996094 53.54093933105469
C 31.026527404785156 43.207252502441406 55.10679626464844
C 31.20400619506836 42.70995330810547 53.812156677246094
C 32.97529220581055 40.52315139770508 56.54973602294922
C 34.0867919921875 43.37258529663086 58.15052795410156
C 34.036460876464844 44.7327766418457 57.74755096435547
C 31.87478256225586 44.40370178222656 56.76371765136719
C 37.14476013183594 43.21449661254883 52.054847717285156
C 36.990943908691406 41.87670135498047 52.69318389892578
C 37.51950454711914 44.012752532958984 53.38176727294922
C 37.84113693237305 43.09819030761719 54.3797607421875
C 32.47127914428711 42.90672302246094 51.97978973388672
C 35.91823959350586 41.02568054199219 52.414772033691406
C 34.96492385864258 46.42231369018555 53.75596618652344
C 34.06693649291992 40.03170394897461 53.28008270263672
C 36.01535415649414 40.027099609375 54.63011169433594
C 32.50344467163086 41.56357955932617 52.38727569580078
C 36.90562438964844 45.26017379760742 53.598976135253906
C 31.846275329589844 40.979530334472656 55.81044006347656
C 31.411407470703125 42.32511901855469 56.083251953125
C 32.95045471191406 45.237674713134766 57.078521728515625
C 33.04952621459961 42.532249450683594 57.80138397216797
C 35.9604377746582 43.76148986816406 51.223419189453125
C 34.780296325683594 42.845340728759766 51.231414794921875
C 35.31730651855469 45.072784423828125 51.80731201171875
C 33.58892059326172 43.53063201904297 51.40563201904297
C 31.22821807861328 44.527835845947266 55.469749450683594
C 37.544532775878906 41.85552215576172 53.95292663574219
C 35.80260467529297 45.789756774902344 52.88146209716797
C 33.93735885620117 44.850868225097656 51.79590606689453
C 36.78213882446289 45.64515686035156 54.95128631591797
C 31.641136169433594 43.56288146972656 52.817047119140625
C 34.81060791015625 41.495384216308594 51.748931884765625
C 35.45446014404297 40.097496032714844 53.38768768310547
C 37.66190719604492 43.452796936035156 55.674781799316406
C 37.064537048339844 40.94491958618164 54.913612365722656
C 31.930858612060547 43.06322479248047 57.16333770751953
C 33.679100036621094 40.850616455078125 52.233795166015625
C 31.893497467041016 44.83720779418945 53.19573974609375
C 36.45440673828125 43.29918670654297 57.607147216796875
C 36.42918395996094 44.62786102294922 57.17289733886719
C 34.787574768066406 46.071170806884766 56.09495544433594
C 32.72407531738281 46.215248107910156 54.80268096923828
C 33.807281494140625 39.854270935058594 55.688270568847656
C 31.9195556640625 40.5451774597168 54.50322723388672
C 33.38097381591797 46.1114387512207 56.07758331298828
C 33.61882781982422 41.279930114746094 57.50166320800781
C 38.2360725402832 43.10093307495117 51.07511901855469
N 38.01241683959961 43.40154266357422 49.87713623046875
C 36.59968566894531 43.90081787109375 49.78020477294922
H 36.03908920288086 43.312286376953125 49.0494384765625
H 36.61505889892578 44.882240295410156 49.299354553222656
C 42.18265914916992 41.965171813964844 52.37335968017578
C 41.33808898925781 41.035709381103516 51.74388885498047
H 41.6892204284668 40.03493118286133 51.505714416503906
C 40.051639556884766 41.32424545288086 51.36370086669922
H 39.34291076660156 40.60100555419922 50.968482971191406
C 39.583839416503906 42.67963790893555 51.46862030029297
C 41.71542739868164 43.307254791259766 52.4954833984375
H 42.34150314331055 44.09609603881836 52.904541015625
C 40.40880584716797 43.63559341430664 52.08489990234375
H 40.07659149169922 44.67028045654297 52.05976867675781
C 43.59878921508789 41.56341552734375 52.73283386230469
C 44.070594787597656 40.23588562011719 52.402992248535156
C 43.574623107910156 38.925506591796875 52.63312530517578
H 42.67723846435547 38.6944694519043 53.19752502441406
C 44.4472541809082 38.017425537109375 52.133636474609375
H 44.36056900024414 36.93751907348633 52.19294738769531
C 45.49863052368164 38.6339225769043 51.558738708496094
N 45.2933349609375 39.989986419677734 51.73942565917969
H 46.028987884521484 40.55845642089844 51.34221649169922
C 46.658912658691406 38.081581115722656 50.924835205078125
H 46.64653778076172 36.99655532836914 50.832679748535156
C 47.88417053222656 38.64214324951172 50.577880859375
C 49.092185974121094 37.820499420166016 50.35400390625
H 49.22687530517578 36.74398422241211 50.340179443359375
C 50.028785705566406 38.83505630493164 50.200340270996094
H 51.10215759277344 38.6778564453125 50.21991729736328
C 49.357086181640625 40.133724212646484 50.374183654785156
N 48.096229553222656 39.97743225097656 50.63224792480469
C 50.098793029785156 41.3828125 50.400062561035156
C 49.954627990722656 42.180660247802734 51.49462890625
C 50.907928466796875 42.88553237915039 52.332427978515625
H 51.98059844970703 42.92430877685547 52.173980712890625
C 50.255340576171875 43.479652404785156 53.37120056152344
H 50.84632110595703 43.932613372802734 54.160369873046875
C 48.87840270996094 43.329315185546875 53.2437744140625
N 48.7587890625 42.61809158325195 52.049964904785156
H 47.88738250732422 42.42604064941406 51.574684143066406
C 47.851112365722656 43.76724624633789 54.016502380371094
H 48.17601776123047 44.29833984375 54.90997314453125
C 46.4190788269043 43.45606231689453 53.885711669921875
C 45.38299560546875 43.88021469116211 54.790794372558594
H 45.52626037597656 44.4931755065918 55.674522399902344
C 44.209171295166016 43.25985336303711 54.369102478027344
H 43.293434143066406 43.44920349121094 54.91937255859375
C 44.507110595703125 42.44630432128906 53.276939392089844
N 45.784950256347656 42.71671676635742 52.90409851074219
C 52.58887481689453 42.76203155517578 47.13710021972656
C 52.16328430175781 43.592384338378906 48.12952423095703
H 52.629302978515625 44.573734283447266 48.09283447265625
C 51.356895446777344 43.1206169128418 49.18492126464844
H 51.038124084472656 43.80817413330078 49.96416473388672
C 50.884788513183594 41.825992584228516 49.20356750488281
C 52.211212158203125 41.42295455932617 47.188453674316406
H 52.39508819580078 40.769962310791016 46.33911895751953
C 51.32588195800781 40.96757507324219 48.19176483154297
H 51.02783966064453 39.92253875732422 48.16654968261719
N 53.36157989501953 43.38178634643555 46.090904235839844
H 54.01074981689453 44.05105972290039 46.47655487060547
C 53.5926513671875 43.02188491821289 44.81122589111328
O 53.01373291015625 42.068058013916016 44.33601379394531
C 54.777320861816406 43.699073791503906 44.140960693359375
C 55.18650817871094 44.97636032104492 44.49816131591797
H 54.45719909667969 45.54121017456055 45.073150634765625
C 56.203041076660156 45.66659927368164 43.877166748046875
C 56.934059143066406 44.98808670043945 42.89097595214844
H 57.70378112792969 45.51069641113281 42.32884979248047
C 56.61604309082031 43.66193389892578 42.539772033691406
H 57.15614318847656 43.10453796386719 41.77873992919922
C 55.589988708496094 43.02962875366211 43.27252960205078
H 55.391510009765625 41.98271179199219 43.05772399902344
C 56.528594970703125 47.071144104003906 44.242393493652344
H 55.890892028808594 47.36669158935547 45.07421112060547
C 57.313758850097656 48.0312614440918 43.65269470214844
H 57.96294403076172 47.74469757080078 42.826637268066406
C 57.43339538574219 49.45515823364258 43.996253967285156
C 57.168739318847656 49.879798889160156 45.40065002441406
H 56.65495300292969 49.12516403198242 45.99983215332031
H 56.56355285644531 50.77651596069336 45.549346923828125
H 58.13206481933594 50.02572250366211 45.893768310546875
C 57.915565490722656 50.30323791503906 43.090576171875
H 58.12017822265625 49.94844436645508 42.08152770996094
C 58.201683044433594 51.79291915893555 43.26251220703125
H 57.91241455078125 52.285194396972656 44.18982696533203
C 58.879661560058594 52.49523162841797 42.358619689941406
H 59.14947509765625 52.039581298828125 41.40703582763672
C 59.235595703125 53.913448333740234 42.47991180419922
C 58.364898681640625 54.697967529296875 43.373191833496094
H 58.720672607421875 54.676944732666016 44.4053955078125
H 58.282012939453125 55.74005126953125 43.057518005371094
H 57.32288360595703 54.37136459350586 43.37712097167969
C 60.32154083251953 54.45602035522461 41.836639404296875
H 60.88849639892578 53.65995407104492 41.35626220703125
C 60.798797607421875 55.790321350097656 41.79400634765625
H 60.398231506347656 56.393829345703125 42.607177734375
C 61.788658142089844 56.362205505371094 41.03849792480469
H 62.278472900390625 55.693790435791016 40.331932067871094
C 62.074363708496094 57.858055114746094 41.010414123535156
H 61.327171325683594 58.48509216308594 41.494606018066406
C 63.076324462890625 58.49358367919922 40.424560546875
C 64.05753326416016 57.748382568359375 39.61857604980469
H 63.5997314453125 56.90585708618164 39.09605407714844
H 64.35179138183594 58.43988800048828 38.82630157470703
H 64.99116516113281 57.35702896118164 40.02800750732422
C 63.33738708496094 59.891075134277344 40.537986755371094
H 64.4055404663086 60.07170867919922 40.64912414550781
C 62.510459899902344 60.89434051513672 40.611305236816406
H 61.4454345703125 60.69536590576172 40.50154113769531
C 63.06050109863281 62.22282409667969 40.864418029785156
H 64.13381958007812 62.20796203613281 41.047943115234375
C 62.3697509765625 63.34331512451172 40.94242858886719
C 60.873260498046875 63.473716735839844 40.75547790527344
H 60.40898895263672 63.11998748779297 41.67839813232422
H 60.52471923828125 64.48246765136719 40.524375915527344
H 60.486106872558594 62.81694793701172 39.973663330078125
C 62.968597412109375 64.56945037841797 41.42552947998047
H 64.05037689208984 64.54203033447266 41.303375244140625
C 62.491485595703125 65.6468276977539 42.07935333251953
H 61.450355529785156 65.75433349609375 42.380043029785156
C 63.31123352050781 66.86357879638672 42.507972717285156
C 64.58926391601562 66.80701446533203 42.922203063964844
C 65.2725601196289 65.50341796875 43.298240661621094
H 64.49946594238281 64.76866149902344 43.53260803222656
H 65.88841247558594 65.13054656982422 42.47718048095703
H 65.88237762451172 65.6407699584961 44.193626403808594
C 65.44422912597656 67.9820556640625 43.47791290283203
H 66.47781372070312 67.92427825927734 43.13031768798828
H 65.56629180908203 67.85723876953125 44.55586242675781
C 64.80118560791016 69.33756256103516 43.38538360595703
H 65.04833984375 69.92472839355469 42.49846649169922
H 65.22888946533203 69.93821716308594 44.190826416015625
C 63.277687072753906 69.1672134399414 43.44715881347656
H 62.98772430419922 68.78231811523438 44.42707824707031
H 62.815452575683594 70.15437316894531 43.38146209716797
C 62.731773376464844 68.2696304321289 42.366600036621094
C 61.23040771484375 68.31410217285156 42.500640869140625
H 60.81181335449219 69.31507873535156 42.624237060546875
H 60.74212646484375 67.80138397216797 41.66926574707031
H 60.980430603027344 67.76761627197266 43.41241455078125
C 62.89143371582031 68.94746398925781 41.04985809326172
H 62.229248046875 68.52356719970703 40.29204559326172
H 62.67240905761719 70.01270294189453 40.95106506347656
H 63.942962646484375 68.75145721435547 40.83002471923828
