207
Triad, Carotenoid-Porphyrin-C60
C 28.90337562561035 46.71105194091797 54.765438079833984
C 34.64265060424805 45.35549545288086 57.53053665161133
C 33.865482330322266 47.298587799072266 56.664913177490234
C 31.754384994506836 48.26826095581055 56.07662582397461
C 33.7476692199707 43.32200241088867 58.37202835083008
C 34.52865982055664 43.987266540527344 57.44980239868164
C 33.15034866333008 45.393272399902344 59.43825912475586
C 32.27589416503906 47.75776672363281 58.40970230102539
C 28.32213020324707 46.61898422241211 56.95108413696289
C 33.08917999267578 44.01677322387695 59.38993453979492
C 29.54901695251465 47.74087142944336 55.42684555053711
C 30.894193649291992 41.61470031738281 57.132877349853516
C 33.15813064575195 42.19643783569336 57.778804779052734
C 28.856367111206055 42.6994743347168 56.59335708618164
C 28.342775344848633 44.42812728881836 58.04451370239258
C 28.13117790222168 43.81101608276367 56.85911178588867
C 31.176279067993164 42.59473419189453 59.16533279418945
C 31.939207077026367 45.9136848449707 59.92618942260742
C 31.5051326751709 47.09710693359375 59.326602935791016
C 29.326894760131836 46.10791015625 59.118106842041016
C 33.1338005065918 45.013397216796875 53.22710418701172
C 33.46139907836914 43.77952575683594 54.03352355957031
C 33.629207611083984 46.03323745727539 54.17440414428711
C 34.42011642456055 45.449432373046875 55.147037506103516
C 28.74668312072754 43.93154525756836 54.718074798583984
C 32.54804229736328 42.780853271484375 54.29801559448242
C 30.860090255737305 48.042579650878906 55.0767822265625
C 31.292768478393555 41.69248580932617 55.77962112426758
C 33.5389518737793 42.22511291503906 56.425418853759766
C 29.14421272277832 42.66216278076172 55.24679946899414
C 32.84053039550781 47.17074203491211 54.536521911621094
C 29.77302360534668 42.70778274536133 58.8077507019043
C 29.17146110534668 43.898502349853516 59.03190994262695
C 30.19493293762207 47.18625259399414 58.9099235534668
C 31.088911056518555 44.779075622558594 60.17246627807617
C 31.62894630432129 45.16546630859375 52.76887512207031
C 30.749223709106445 44.072017669677734 53.28733444213867
C 30.85249137878418 46.36263656616211 53.35099792480469
C 29.5054874420166 44.62582015991211 53.80193328857422
C 28.382413864135742 45.809051513671875 58.15561294555664
C 34.31647872924805 44.09214401245117 55.05242919921875
C 31.518056869506836 47.314273834228516 54.09067153930664
C 29.584428787231445 45.98532485961914 53.768733978271484
C 32.975364685058594 47.73832321166992 55.742252349853516
C 28.03531837463379 44.62812042236328 55.69624710083008
C 31.212202072143555 42.92964553833008 53.968727111816406
C 32.588565826416016 41.98457717895508 55.45181655883789
C 34.584266662597656 46.14168930053711 56.39168167114258
C 34.396034240722656 43.32590103149414 56.23430252075195
C 29.797578811645508 44.89228820800781 59.73270797729492
C 30.393308639526367 42.190895080566406 54.82354736328125
C 28.12822914123535 46.042030334472656 55.75461196899414
C 33.949913024902344 46.05332565307617 58.49776840209961
C 33.501068115234375 47.269508361816406 57.994075775146484
C 31.414525985717773 48.27642822265625 57.42930221557617
C 29.165132522583008 47.73721694946289 56.77141189575195
C 31.832258224487305 41.9312858581543 58.12276840209961
C 29.633630752563477 42.10573959350586 57.58352279663086
C 30.141576766967773 47.99436569213867 57.73322677612305
C 31.793378829956055 43.64516067504883 59.8145637512207
C 33.83555221557617 45.146270751953125 51.8984375
N 33.093048095703125 45.13639831542969 50.86307144165039
C 31.75362205505371 44.86497116088867 51.264896392822266
H 31.682641983032227 43.791648864746094 51.07101058959961
H 30.961271286010742 45.313167572021484 50.65995788574219
C 38.002506256103516 46.455841064453125 51.71694564819336
C 37.5947151184082 45.33074951171875 52.392555236816406
H 38.27589797973633 44.796512603759766 53.0499382019043
C 36.27843475341797 44.85245132446289 52.46146774291992
H 36.058712005615234 43.91868209838867 52.97270965576172
C 35.2559814453125 45.53530502319336 51.77941131591797
C 36.99654769897461 46.942378997802734 50.8615837097168
H 37.1809196472168 47.844974517822266 50.28459930419922
C 35.67380905151367 46.474945068359375 50.91090393066406
H 34.93023681640625 47.09943771362305 50.42234802246094
C 39.39133071899414 47.046241760253906 51.82938766479492
C 40.45002365112305 46.161861419677734 52.42893981933594
C 40.753597259521484 45.85915756225586 53.690555572509766
H 40.158992767333984 46.18178176879883 54.538841247558594
C 41.86727523803711 44.94062042236328 53.67191696166992
H 42.34040451049805 44.297462463378906 54.40657424926758
C 42.18557357788086 44.814239501953125 52.356204986572266
N 41.3870735168457 45.59534454345703 51.62966537475586
H 41.32565689086914 45.57944107055664 50.62065887451172
C 43.12553787231445 43.97121047973633 51.633697509765625
H 43.6462516784668 43.138668060302734 52.10449981689453
C 43.80580520629883 44.38711166381836 50.53696060180664
C 44.09233474731445 43.3832893371582 49.51613235473633
H 43.964176177978516 42.30809020996094 49.44723892211914
C 44.74534225463867 44.15904235839844 48.60809326171875
H 45.10494613647461 43.8766975402832 47.62411880493164
C 44.8468132019043 45.52830123901367 49.03474807739258
N 44.296329498291016 45.649662017822266 50.25530242919922
C 45.43460464477539 46.65825653076172 48.292938232421875
C 44.65568161010742 47.815677642822266 47.97499465942383
C 44.61579513549805 48.67609786987305 46.81371307373047
H 45.3010139465332 48.734519958496094 45.97449493408203
C 43.5656623840332 49.530982971191406 46.90984344482422
H 43.310054779052734 50.387638092041016 46.295005798339844
C 42.787105560302734 49.2083625793457 48.020057678222656
N 43.50029373168945 48.201927185058594 48.61350631713867
H 43.21937942504883 47.742210388183594 49.468997955322266
C 41.641963958740234 49.82777404785156 48.41645050048828
H 41.377750396728516 50.753990173339844 47.90827941894531
C 40.75838851928711 49.44154357910156 49.501461029052734
C 39.717159271240234 50.18032455444336 50.17992401123047
H 39.65834426879883 51.25017547607422 50.00906753540039
C 39.088741302490234 49.36253356933594 51.10694885253906
H 38.34822463989258 49.62332534790039 51.85584259033203
C 39.719852447509766 48.10826873779297 51.0303840637207
N 40.68967819213867 48.20340347290039 50.031856536865234
C 49.82279586791992 46.507408142089844 48.019500732421875
C 49.13669204711914 47.63477325439453 47.56991958618164
H 49.585697174072266 48.51924133300781 47.125301361083984
C 47.74751663208008 47.68833923339844 47.622886657714844
H 47.25649642944336 48.55938720703125 47.196571350097656
C 47.01399612426758 46.65216064453125 48.22657012939453
C 49.10830307006836 45.573638916015625 48.733890533447266
H 49.641475677490234 44.72610092163086 49.156951904296875
C 47.698848724365234 45.56437301635742 48.75840377807617
H 47.17265701293945 44.74675750732422 49.24440383911133
N 51.25160598754883 46.435028076171875 47.99240493774414
H 51.75505447387695 45.91106414794922 48.69247055053711
C 52.0988655090332 46.92668151855469 47.058807373046875
O 51.82085037231445 47.17743682861328 45.8792610168457
C 53.4858283996582 47.19668197631836 47.60464096069336
C 54.50613021850586 47.73976135253906 46.827022552490234
H 54.33510971069336 47.83076477050781 45.757423400878906
C 55.6794319152832 48.20109558105469 47.34543228149414
C 55.86942672729492 48.12862014770508 48.67049026489258
H 56.76289749145508 48.61296463012695 49.05610275268555
C 55.0137825012207 47.4195556640625 49.49036407470703
H 55.07217025756836 47.354190826416016 50.57382583618164
C 53.79404067993164 47.03898239135742 48.926170349121094
H 52.9809455871582 46.83685302734375 49.61869430541992
C 56.6262092590332 48.9857292175293 46.47944259643555
H 56.29678726196289 49.00428771972656 45.44162368774414
C 57.81900405883789 49.61368942260742 46.73509216308594
H 58.136409759521484 49.65032196044922 47.77617263793945
C 58.722286224365234 50.285362243652344 45.86065673828125
C 58.2475471496582 50.58231735229492 44.457237243652344
H 57.190059661865234 50.85460662841797 44.451053619384766
H 58.39725875854492 49.659358978271484 43.89314270019531
H 58.79108810424805 51.42219543457031 44.019474029541016
C 59.98934555053711 50.47053146362305 46.16595458984375
H 60.21242904663086 50.08328628540039 47.15903091430664
C 61.10233688354492 51.16038131713867 45.514373779296875
H 60.974308013916016 51.656883239746094 44.55363464355469
C 62.40322494506836 51.021240234375 45.86907958984375
H 62.53169631958008 50.552860260009766 46.84377670288086
C 63.588863372802734 51.552879333496094 45.293025970458984
C 64.84003448486328 50.96424102783203 45.87872314453125
H 64.57100677490234 49.933837890625 46.12031555175781
H 65.5143814086914 50.93891525268555 45.02018737792969
H 65.32498931884766 51.488346099853516 46.70491409301758
C 63.58456039428711 52.48135757446289 44.39879608154297
H 62.61958694458008 52.7493896484375 43.97113037109375
C 64.70335388183594 53.183921813964844 43.804569244384766
H 65.66869354248047 53.08774948120117 44.29933166503906
C 64.72724914550781 54.03846740722656 42.76239776611328
H 63.83707809448242 54.33944320678711 42.21200180053711
C 65.9161148071289 54.62498092651367 42.25594711303711
H 66.79869842529297 54.042293548583984 42.51564407348633
C 66.14735412597656 55.70164108276367 41.46213912963867
C 65.06458282470703 56.638519287109375 41.14629364013672
H 65.36639404296875 57.653079986572266 41.41468811035156
H 64.83155059814453 56.6357307434082 40.07945251464844
H 64.14508819580078 56.318477630615234 41.64083480834961
C 67.34696197509766 56.02983093261719 40.73406219482422
H 67.32299041748047 57.02843475341797 40.30031967163086
C 68.34075927734375 55.161460876464844 40.52415084838867
H 68.39347076416016 54.17988204956055 40.9928092956543
C 69.5873794555664 55.482933044433594 39.8093376159668
H 69.51524353027344 56.37919998168945 39.19498825073242
C 70.72649383544922 54.84218978881836 39.81135177612305
C 70.96165466308594 53.49034118652344 40.520835876464844
H 70.48672485351562 52.707786560058594 39.925418853759766
H 72.01042175292969 53.1921501159668 40.581138610839844
H 70.43026733398438 53.478633880615234 41.474754333496094
C 71.78076171875 55.38587188720703 39.053443908691406
H 71.67145538330078 56.440757751464844 38.80607223510742
C 72.91842651367188 54.82316970825195 38.5997428894043
H 73.03363037109375 53.76365661621094 38.82353973388672
C 74.02249908447266 55.4786376953125 37.80031967163086
C 74.56755828857422 56.71928787231445 38.04066848754883
C 74.26084899902344 57.5933952331543 39.208927154541016
H 75.18045043945312 57.547119140625 39.795997619628906
H 74.13652038574219 58.643585205078125 38.93669128417969
H 73.46392059326172 57.2523307800293 39.873043060302734
C 75.67240905761719 57.3621826171875 37.28475570678711
H 76.39915466308594 57.76553726196289 37.99300003051758
H 75.3443603515625 58.16678237915039 36.62334442138672
C 76.3848648071289 56.24922561645508 36.42294692993164
H 77.03804779052734 55.66106414794922 37.0709342956543
H 77.07134246826172 56.66399002075195 35.681884765625
C 75.41254425048828 55.37119674682617 35.614837646484375
H 74.74652099609375 56.028968811035156 35.052513122558594
H 75.90428924560547 54.76150894165039 34.853965759277344
C 74.49623107910156 54.6440544128418 36.587135314941406
C 73.28883361816406 54.00318145751953 35.82826614379883
H 72.6987533569336 54.733985900878906 35.27131652832031
H 73.712158203125 53.24500274658203 35.16613006591797
H 72.60172271728516 53.41672897338867 36.4417839050293
C 75.26447296142578 53.39645004272461 36.976627349853516
H 76.1333236694336 53.62174987792969 37.59856414794922
H 74.5865707397461 52.78596115112305 37.576812744140625
H 75.56099700927734 52.76421356201172 36.137088775634766
