207
Triad, Carotenoid-Porphyrin-C60
C 60.18022537231445 34.978153228759766 42.09524154663086
C 57.32843780517578 36.17295837402344 47.885433197021484
C 56.681434631347656 34.65864944458008 46.26686477661133
C 57.692535400390625 33.57499694824219 44.26914978027344
C 59.310707092285156 37.385162353515625 48.56742858886719
C 57.98472595214844 37.404266357421875 48.0889892578125
C 59.40449142456055 34.934165954589844 48.57040786743164
C 58.59151077270508 33.22701644897461 46.5330924987793
C 61.60950469970703 33.987308502197266 43.49906539916992
C 60.02257537841797 36.19399642944336 48.779266357421875
C 59.463722229003906 33.9404182434082 42.71038055419922
C 61.77727508544922 38.773189544677734 46.41211700439453
C 59.96839141845703 38.46866226196289 47.99846267700195
C 62.772544860839844 37.643917083740234 44.437835693359375
C 63.04410934448242 35.2948112487793 44.90892028808594
C 62.974700927734375 36.31134796142578 43.942081451416016
C 62.02406692504883 37.122467041015625 47.87422561645508
C 60.287330627441406 34.08036422729492 48.021297454833984
C 59.87000274658203 33.207298278808594 46.97808837890625
C 61.98122787475586 33.59170150756836 45.841468811035156
C 56.82612228393555 38.07229232788086 43.70356369018555
C 57.4296760559082 38.85776138305664 44.868743896484375
C 56.34137725830078 36.790367126464844 44.42393493652344
C 56.37189865112305 37.02341842651367 45.81955337524414
C 61.479007720947266 37.42188262939453 42.61988830566406
C 58.767356872558594 39.40401840209961 44.817474365234375
C 58.18607711791992 34.1502685546875 43.132633209228516
C 60.901851654052734 39.48543167114258 45.578792572021484
C 59.08730697631836 39.131526947021484 47.20919418334961
C 61.866546630859375 38.33523941040039 43.585227966308594
C 56.63881301879883 35.52033996582031 43.943111419677734
C 62.86528778076172 36.826847076416016 46.77237319946289
C 62.954551696777344 35.56270217895508 46.248329162597656
C 60.718318939208984 32.97358703613281 45.917266845703125
C 61.483726501464844 34.724945068359375 47.93444061279297
C 57.78607940673828 37.87322998046875 42.49052429199219
C 59.19252014160156 38.34513473510742 42.69154739379883
C 58.12888717651367 36.3797607421875 42.1961784362793
C 60.12934875488281 37.429847717285156 42.1849365234375
C 62.44615936279297 34.08003234863281 44.62918472290039
C 57.01713180541992 38.274410247802734 46.0313835144043
C 57.5404167175293 35.354793548583984 42.90887451171875
C 59.516544342041016 36.206443786621094 41.83433532714844
C 56.7870979309082 34.49501037597656 44.87030029296875
C 62.1671028137207 36.234012603759766 42.781150817871094
C 59.59991455078125 39.19138717651367 43.75385284423828
C 59.55852127075195 39.587284088134766 45.988670349121094
C 56.53042984008789 35.982818603515625 46.73550033569336
C 57.83707046508789 38.452327728271484 47.20815658569336
C 62.366146087646484 34.479183197021484 46.86569595336914
C 60.93164825439453 39.21113967895508 44.165340423583984
C 61.50224685668945 35.02583312988281 42.59423065185547
C 58.07097244262695 34.94728088378906 48.07905578613281
C 57.615257263183594 34.06863784790039 47.075687408447266
C 58.56113815307617 32.934452056884766 45.16181945800781
C 60.35411834716797 33.351951599121094 43.576515197753906
C 61.351661682128906 38.34237289428711 47.62969970703125
C 62.68168640136719 37.85548782348633 45.862876892089844
C 59.90865707397461 32.81925964355469 44.8104362487793
C 61.33350372314453 36.03978729248047 48.40815353393555
C 55.6041145324707 38.6984748840332 43.108306884765625
N 55.77764129638672 39.0203742980957 41.89329528808594
C 56.99949264526367 38.539981842041016 41.36922073364258
H 57.60669708251953 39.33370590209961 40.926544189453125
H 56.8107795715332 37.8343620300293 40.55611801147461
C 52.117244720458984 39.83066177368164 45.435218811035156
C 53.36309051513672 40.34163284301758 45.66940689086914
H 53.4539909362793 40.95778274536133 46.56028366088867
C 54.48872756958008 39.93497848510742 44.954345703125
H 55.40991973876953 40.424495697021484 45.2598762512207
C 54.38328170776367 39.12839889526367 43.851898193359375
C 51.994754791259766 39.00629806518555 44.3170166015625
H 50.99457931518555 38.71196365356445 44.00947189331055
C 53.14026641845703 38.641666412353516 43.53896713256836
H 53.009605407714844 38.07297897338867 42.621856689453125
C 50.84516906738281 40.2396125793457 46.15608596801758
C 50.87763214111328 41.33395767211914 47.22468185424805
C 51.59019470214844 41.355838775634766 48.395992279052734
H 52.25819396972656 40.58096694946289 48.75734329223633
C 51.40644073486328 42.637386322021484 49.02235412597656
H 51.8270378112793 42.95012283325195 49.97236251831055
C 50.462406158447266 43.29701614379883 48.32577896118164
N 50.1615104675293 42.510616302490234 47.18284225463867
H 49.54521942138672 42.82767868041992 46.44678497314453
C 49.86988830566406 44.62100601196289 48.47492599487305
H 50.26887893676758 45.35749435424805 49.17084884643555
C 48.81598663330078 45.158748626708984 47.76229476928711
C 48.82473373413086 46.44154739379883 47.27055358886719
H 49.64356994628906 47.14894485473633 47.350067138671875
C 47.72134017944336 46.56117630004883 46.52948760986328
H 47.3485107421875 47.397212982177734 45.947021484375
C 47.04076385498047 45.269290924072266 46.58279800415039
N 47.70694351196289 44.420413970947266 47.39498519897461
C 45.69130325317383 44.913455963134766 46.05522155761719
C 45.39445495605469 43.68235397338867 45.61224365234375
C 44.132774353027344 43.07688522338867 45.68441390991211
H 43.20980453491211 43.618831634521484 45.862300872802734
C 44.28758239746094 41.704280853271484 45.538211822509766
H 43.549861907958984 40.9115104675293 45.605308532714844
C 45.67151641845703 41.33259963989258 45.542354583740234
N 46.20486831665039 42.54440689086914 45.61091613769531
H 47.2037467956543 42.66542434692383 45.51234436035156
C 46.131019592285156 40.066226959228516 45.52874755859375
H 45.3413200378418 39.31686782836914 45.5010871887207
C 47.45146179199219 39.5910758972168 45.65340042114258
C 47.953025817871094 38.22434616088867 45.65113830566406
H 47.29120635986328 37.36461639404297 45.660545349121094
C 49.337242126464844 38.38328170776367 45.894813537597656
H 50.14899444580078 37.67283248901367 46.01118850708008
C 49.63962173461914 39.72183609008789 45.86068344116211
N 48.49779510498047 40.43863296508789 45.77604293823242
C 42.866477966308594 48.284297943115234 45.66591262817383
C 42.65968704223633 47.13729476928711 44.881465911865234
H 41.896934509277344 47.1688117980957 44.10764694213867
C 43.565635681152344 46.035335540771484 45.03751754760742
H 43.666160583496094 45.23239517211914 44.31174087524414
C 44.71959686279297 46.098751068115234 45.87484359741211
C 43.92930603027344 48.28159713745117 46.53396987915039
H 44.00385284423828 49.1009407043457 47.244384765625
C 44.761497497558594 47.18655776977539 46.67538833618164
H 45.56299591064453 47.210750579833984 47.409271240234375
N 42.02081298828125 49.400760650634766 45.56950378417969
H 41.478092193603516 49.71048355102539 46.36172103881836
C 41.99360275268555 50.164241790771484 44.43223571777344
O 42.72830581665039 49.8657112121582 43.53178405761719
C 40.975318908691406 51.246150970458984 44.412113189697266
C 40.70072555541992 52.0130500793457 45.558189392089844
H 41.420249938964844 51.94340896606445 46.36997985839844
C 39.62747573852539 52.86593246459961 45.558773040771484
C 38.78663635253906 52.96842575073242 44.459442138671875
H 37.87173080444336 53.549556732177734 44.54200744628906
C 39.079097747802734 52.273799896240234 43.26655197143555
H 38.45695114135742 52.345706939697266 42.378108978271484
C 40.237422943115234 51.481266021728516 43.2760124206543
H 40.539817810058594 50.970088958740234 42.36561584472656
C 39.44144821166992 53.693180084228516 46.768978118896484
H 40.24013137817383 53.628047943115234 47.50639724731445
C 38.427734375 54.51694107055664 47.00545120239258
H 37.61547088623047 54.64260482788086 46.291053771972656
C 38.323116302490234 55.37089157104492 48.21285629272461
C 36.95841598510742 55.891475677490234 48.44008255004883
H 36.986122131347656 56.96340560913086 48.233551025390625
H 36.535499572753906 55.61052322387695 49.40686798095703
H 36.34506607055664 55.39784622192383 47.68338394165039
C 39.31357192993164 55.86867141723633 48.86775207519531
H 40.264183044433594 55.57730484008789 48.42349624633789
C 39.35553741455078 56.78745651245117 49.987545013427734
H 38.42489242553711 57.16635513305664 50.407371520996094
C 40.50563049316406 57.231929779052734 50.515750885009766
H 41.422508239746094 56.852787017822266 50.066856384277344
C 40.61347579956055 58.17581558227539 51.54728698730469
C 42.03533172607422 58.29591751098633 52.004058837890625
H 42.16664505004883 58.281734466552734 53.088035583496094
H 42.6812629699707 57.51431655883789 51.59867477416992
H 42.46792221069336 59.22055435180664 51.61627197265625
C 39.69308090209961 58.992671966552734 52.033260345458984
H 38.66609191894531 58.89535903930664 51.6843376159668
C 39.95354461669922 60.0978889465332 53.0155029296875
H 40.99173355102539 60.40340805053711 53.13692092895508
C 39.008907318115234 60.71701431274414 53.69389343261719
H 37.998477935791016 60.31828689575195 53.616607666015625
C 39.26351547241211 61.785579681396484 54.71846008300781
H 40.24040985107422 62.235591888427734 54.54789352416992
C 38.44987106323242 62.339054107666016 55.58237838745117
C 36.96644973754883 61.908512115478516 55.80988311767578
H 36.4250602722168 62.544315338134766 55.106239318847656
H 36.90459442138672 60.84451675415039 55.57207107543945
H 36.49721145629883 61.90696334838867 56.795928955078125
C 38.87103271484375 63.38321304321289 56.4914665222168
H 38.55703353881836 63.161556243896484 57.51038360595703
C 39.50912857055664 64.55081176757812 56.14566421508789
H 39.66790008544922 64.57229614257812 55.06851577758789
C 40.029850006103516 65.55840301513672 56.97022247314453
H 39.581668853759766 65.69772338867188 57.95289993286133
C 40.99458694458008 66.43285369873047 56.678165435791016
C 41.94850158691406 66.19110107421875 55.550865173339844
H 41.94679641723633 66.86201477050781 54.68927764892578
H 43.000999450683594 66.1754379272461 55.84149169921875
H 41.796295166015625 65.14512634277344 55.27655029296875
C 41.399044036865234 67.42710876464844 57.62705993652344
H 41.09296417236328 67.30467987060547 58.66496658325195
C 42.06625747680664 68.51265716552734 57.224212646484375
H 42.36017990112305 68.65380859375 56.18517303466797
C 42.63008117675781 69.6124267578125 58.063568115234375
C 41.876312255859375 70.24348449707031 59.038448333740234
C 40.46953201293945 69.90914154052734 59.385616302490234
H 40.3217658996582 68.99646759033203 59.966697692871094
H 39.93351364135742 70.66789245605469 59.9595832824707
H 39.88584899902344 69.77671813964844 58.472251892089844
C 42.36012268066406 71.3414535522461 59.866756439208984
H 42.4203987121582 70.95368957519531 60.885807037353516
H 41.61315155029297 72.13795471191406 59.85774230957031
C 43.63835144042969 72.00880432128906 59.3052978515625
H 44.02739715576172 72.66424560546875 60.08728790283203
H 43.490509033203125 72.72699737548828 58.49609375
C 44.62242126464844 70.90420532226562 58.889183044433594
H 45.558841705322266 71.378662109375 58.58839416503906
H 44.801239013671875 70.270263671875 59.760162353515625
C 44.08317947387695 69.99455261230469 57.76274490356445
C 44.184200286865234 70.70087432861328 56.39552307128906
H 43.41354751586914 71.47393798828125 56.42582702636719
H 45.17298889160156 71.13597869873047 56.23599624633789
H 43.81904602050781 70.04676055908203 55.60100555419922
C 45.06787872314453 68.84986877441406 57.54248046875
H 45.284263610839844 68.39643096923828 58.51203536987305
H 44.777618408203125 67.97294616699219 56.96006393432617
H 45.99551010131836 69.29471588134766 57.17631530761719
