207
Triad, Carotenoid-Porphyrin-C60
C 56.355777740478516 45.276615142822266 47.370033264160156
C 51.65435791015625 48.59138870239258 44.40015411376953
C 53.38723373413086 47.50706100463867 43.47825241088867
C 54.96493148803711 45.75835037231445 44.10070037841797
C 50.445552825927734 48.58237838745117 46.48688507080078
C 51.2214469909668 49.25655746459961 45.533233642578125
C 50.53754806518555 46.60567092895508 45.12864685058594
C 52.62500762939453 45.29111099243164 44.04975509643555
C 54.65324783325195 43.74074172973633 47.57560729980469
C 50.01826095581055 47.22183609008789 46.26625061035156
C 56.037841796875 44.79594039916992 46.09906005859375
C 51.8266716003418 48.0234489440918 49.692779541015625
C 50.78116989135742 48.984378814697266 47.74934387207031
C 53.34527587890625 46.353519439697266 50.331703186035156
C 52.91244125366211 44.244449615478516 49.1297607421875
C 53.78132247924805 45.075565338134766 49.824745178222656
C 50.36113739013672 46.766971588134766 48.57122039794922
C 50.695518493652344 45.241878509521484 45.483299255371094
C 51.789337158203125 44.631656646728516 44.92292022705078
C 52.317909240722656 43.60200119018555 47.06724548339844
C 55.880435943603516 49.75832748413086 46.09253692626953
C 54.59827423095703 50.282047271728516 46.70661163330078
C 55.230472564697266 49.13740921020508 44.84221649169922
C 53.904415130615234 49.50289535522461 44.67007064819336
C 55.454158782958984 46.556880950927734 49.64629364013672
C 54.246978759765625 50.05843734741211 48.057884216308594
C 55.98582077026367 45.72026443481445 45.046592712402344
C 52.91103744506836 48.864192962646484 49.437530517578125
C 51.84652328491211 49.83174514770508 47.592018127441406
C 54.380409240722656 47.245609283447266 50.19580078125
C 55.579219818115234 47.85159683227539 44.49620819091797
C 51.16371154785156 45.95774459838867 49.41088104248047
C 51.596866607666016 44.68241500854492 48.919227600097656
C 52.563392639160156 43.762142181396484 45.700477600097656
C 50.41533660888672 45.082157135009766 46.83319854736328
C 56.71876525878906 48.88651657104492 47.02570343017578
C 56.08824157714844 48.58436965942383 48.35663604736328
C 56.83641815185547 47.43938064575195 46.523170471191406
C 56.34381866455078 47.28226852416992 48.76463317871094
C 53.32890319824219 43.530338287353516 48.023033142089844
C 53.508419036865234 50.18728256225586 45.85503387451172
C 56.368858337402344 47.05610275268555 45.285301208496094
C 56.67135238647461 46.597904205322266 47.573883056640625
C 54.71364212036133 47.0485725402832 43.75578308105469
C 55.05997085571289 45.24814987182617 49.380165100097656
C 55.01358413696289 49.22591781616211 48.852935791015625
C 52.90346145629883 49.83000564575195 48.474037170410156
C 52.96720886230469 48.72421646118164 43.973480224609375
C 52.14677047729492 50.012569427490234 46.22737121582031
C 51.20807647705078 44.237308502197266 47.62370300292969
C 54.169189453125 48.54751205444336 49.76811218261719
C 55.492164611816406 44.568790435791016 48.23485565185547
C 51.24502944946289 47.333255767822266 44.14173889160156
C 52.35785675048828 46.61001968383789 43.61177062988281
C 53.95646286010742 44.82700729370117 44.23468780517578
C 54.95414352416992 43.89784622192383 46.183799743652344
C 50.73936462402344 48.04411697387695 48.802215576171875
C 52.027156829833984 46.74602127075195 50.14794921875
C 53.90100860595703 43.89884567260742 45.25213623046875
C 49.96647644042969 46.35013198852539 47.319679260253906
C 56.8238639831543 50.795772552490234 45.67826843261719
N 57.94954299926758 50.773807525634766 46.35310363769531
C 58.07638168334961 49.59066390991211 47.144195556640625
H 58.424591064453125 49.79755783081055 48.15937805175781
H 58.82686233520508 49.01589584350586 46.595497131347656
C 55.3007698059082 53.94541549682617 43.17243194580078
C 55.79889678955078 52.761478424072266 42.64358139038086
H 55.79496765136719 52.630496978759766 41.564510345458984
C 56.313636779785156 51.79157638549805 43.441741943359375
H 56.73162078857422 50.82976150512695 43.15579605102539
C 56.35918045043945 51.97957229614258 44.84745788574219
C 55.29990005493164 54.09226608276367 44.57452392578125
H 54.836727142333984 54.94430160522461 45.065521240234375
C 55.84406661987305 53.10737228393555 45.41743469238281
H 55.80597686767578 53.23884963989258 46.49578094482422
C 54.693580627441406 55.014286041259766 42.31317138671875
C 54.60747528076172 54.83852767944336 40.92061233520508
C 55.48426818847656 54.604427337646484 39.920894622802734
H 56.56852340698242 54.6161003112793 39.95927429199219
C 54.76481628417969 54.3674201965332 38.665321350097656
H 55.18376922607422 54.2251091003418 37.67464065551758
C 53.472389221191406 54.363216400146484 38.956504821777344
N 53.36990737915039 54.66311264038086 40.32720184326172
H 52.49378967285156 54.8998908996582 40.772708892822266
C 52.33263397216797 54.25614547729492 38.0849723815918
H 52.6245231628418 54.03574752807617 37.05923080444336
C 51.023983001708984 54.58071517944336 38.35118865966797
C 50.118656158447266 54.78522872924805 37.327781677246094
H 50.290775299072266 54.58344650268555 36.275699615478516
C 48.97232437133789 55.19035720825195 37.89925003051758
H 48.009220123291016 55.45341873168945 37.47445297241211
C 49.198917388916016 55.28439712524414 39.29126739501953
N 50.475502014160156 54.831356048583984 39.638671875
C 48.34541320800781 55.77841567993164 40.39134979248047
C 48.6994743347168 56.71540451049805 41.302696228027344
C 47.99290466308594 57.85941696166992 41.816925048828125
H 46.9939079284668 58.08816909790039 41.46068572998047
C 48.873382568359375 58.53115463256836 42.61143493652344
H 48.773536682128906 59.49821853637695 43.093143463134766
C 50.14786911010742 57.87911605834961 42.70948028564453
N 49.85081100463867 56.76485824584961 42.008419036865234
H 50.53818893432617 56.023738861083984 42.027896881103516
C 51.26795196533203 58.25656509399414 43.36111831665039
H 51.11799621582031 59.30195999145508 43.62679672241211
C 52.57828140258789 57.53793716430664 43.39332962036133
C 53.826927185058594 57.96236038208008 44.02192687988281
H 53.961029052734375 58.765628814697266 44.738861083984375
C 54.75287628173828 56.96625900268555 43.63006591796875
H 55.82743835449219 56.947086334228516 43.77897644042969
C 54.04692840576172 56.0815315246582 42.88440704345703
N 52.80615997314453 56.43045425415039 42.67992401123047
C 44.691375732421875 53.3984489440918 41.213443756103516
C 45.09928894042969 54.48226547241211 42.012847900390625
H 44.5078125 54.81010818481445 42.86387252807617
C 46.162574768066406 55.25650405883789 41.67892074584961
H 46.45369338989258 55.97356033325195 42.442230224609375
C 47.01713180541992 55.01975631713867 40.59276580810547
C 45.5633659362793 53.071414947509766 40.142112731933594
H 45.273319244384766 52.18442153930664 39.584716796875
C 46.67353820800781 53.88523483276367 39.842933654785156
H 47.30877685546875 53.56284713745117 39.02189254760742
N 43.58186721801758 52.597843170166016 41.60578918457031
H 43.78179168701172 52.08425521850586 42.45097351074219
C 42.42470932006836 52.380985260009766 40.943572998046875
O 42.149993896484375 53.034305572509766 39.96012878417969
C 41.475364685058594 51.414981842041016 41.634395599365234
C 41.666290283203125 50.99370193481445 42.931793212890625
H 42.500823974609375 51.40365219116211 43.494873046875
C 41.006351470947266 49.9085807800293 43.47211456298828
C 40.023868560791016 49.32004928588867 42.67506790161133
H 39.524600982666016 48.50130081176758 43.18688201904297
C 39.67680740356445 49.77357864379883 41.391056060791016
H 38.945411682128906 49.21834182739258 40.80938720703125
C 40.48677062988281 50.7620964050293 40.90799331665039
H 40.39536666870117 51.14956283569336 39.896514892578125
C 41.5394172668457 49.4123420715332 44.73548889160156
H 42.35527420043945 50.06913375854492 45.033714294433594
C 41.16042709350586 48.337032318115234 45.44428253173828
H 40.23879623413086 47.8377799987793 45.14885711669922
C 41.55785369873047 47.91984939575195 46.76277160644531
C 42.8929557800293 48.37410354614258 47.20709991455078
H 42.81746292114258 49.309146881103516 47.766082763671875
H 43.547096252441406 48.71242904663086 46.40081024169922
H 43.36219024658203 47.66376876831055 47.8909912109375
C 40.76830291748047 47.18696975708008 47.55604553222656
H 39.838985443115234 46.810184478759766 47.13139343261719
C 41.078121185302734 46.796260833740234 48.93370056152344
H 41.941673278808594 47.256778717041016 49.41131591796875
C 40.26962661743164 45.95870590209961 49.604042053222656
H 39.41508483886719 45.57484817504883 49.04876708984375
C 40.316917419433594 45.58396530151367 51.00172424316406
C 39.07746124267578 44.94069290161133 51.510536193847656
H 38.38584518432617 44.799442291259766 50.67736053466797
H 39.36721420288086 43.9552116394043 51.881126403808594
H 38.54971694946289 45.54848861694336 52.248451232910156
C 41.363101959228516 45.74494552612305 51.831642150878906
H 42.28209686279297 46.084285736083984 51.35602569580078
C 41.47261047363281 45.43120193481445 53.221839904785156
H 40.537715911865234 45.25996780395508 53.75341796875
C 42.663246154785156 45.36232376098633 53.868247985839844
H 43.58211898803711 45.587886810302734 53.329063415527344
C 42.803489685058594 45.17930221557617 55.311790466308594
H 42.033103942871094 45.544437408447266 55.989356994628906
C 43.890289306640625 44.66244125366211 55.88294219970703
C 45.1786003112793 44.33872604370117 55.12483215332031
H 45.80484390258789 43.71413040161133 55.765281677246094
H 44.86638641357422 43.80464553833008 54.2249755859375
H 45.61606216430664 45.30508804321289 54.86555480957031
C 44.03717041015625 44.55336380004883 57.313941955566406
H 43.10249710083008 44.39097213745117 57.848670959472656
C 45.15744400024414 44.48037338256836 58.08666229248047
H 46.172882080078125 44.66579818725586 57.73963165283203
C 45.002079010009766 44.27602005004883 59.51457214355469
H 44.080772399902344 43.82241439819336 59.87699890136719
C 45.86037063598633 44.56928634643555 60.52222442626953
C 47.26969909667969 44.9979362487793 60.24617004394531
H 47.534976959228516 45.93265914916992 60.74455261230469
H 47.99210739135742 44.22367477416992 60.512840270996094
H 47.445167541503906 45.150081634521484 59.17915344238281
C 45.68122863769531 44.10916519165039 61.876686096191406
H 46.382694244384766 44.5362663269043 62.59184265136719
C 44.8028450012207 43.25571823120117 62.38062286376953
H 43.97188949584961 42.87350845336914 61.78955841064453
C 44.65952682495117 42.69480514526367 63.71696472167969
C 45.69826126098633 42.23440170288086 64.40121459960938
C 47.145198822021484 42.33516311645508 63.98076629638672
H 47.58393096923828 43.30087661743164 64.24034881591797
H 47.73502731323242 41.56369400024414 64.48017883300781
H 47.29155731201172 42.223514556884766 62.904396057128906
C 45.61807632446289 41.652339935302734 65.83027648925781
H 46.02648162841797 42.47403335571289 66.42229461669922
H 46.216957092285156 40.74641799926758 65.94477844238281
C 44.1811408996582 41.37088394165039 66.29818725585938
H 44.16208267211914 41.14967727661133 67.36737823486328
H 43.806060791015625 40.475460052490234 65.79817962646484
C 43.34088897705078 42.600589752197266 65.85003662109375
H 42.36177062988281 42.573490142822266 66.33280181884766
H 43.79338455200195 43.487064361572266 66.29934692382812
C 43.25583267211914 42.78984451293945 64.3482437133789
C 42.30434036254883 41.72793960571289 63.84081268310547
H 42.754695892333984 40.73555374145508 63.771400451660156
H 41.386085510253906 41.6099967956543 64.41991424560547
H 42.080963134765625 42.00533676147461 62.80852508544922
C 42.58506393432617 44.1619758605957 64.11526489257812
H 43.2930908203125 44.87735366821289 64.538818359375
H 42.52998352050781 44.33321762084961 63.038177490234375
H 41.61150360107422 44.258548736572266 64.60035705566406
