207
Triad, Carotenoid-Porphyrin-C60
C 54.21090316772461 51.175537109375 63.05689239501953
C 54.091609954833984 51.428077697753906 56.73488235473633
C 52.943973541259766 50.117530822753906 58.184600830078125
C 52.25150680541992 49.99755096435547 60.39295196533203
C 55.14902877807617 53.578819274902344 56.77273941040039
C 55.21693801879883 52.21247100830078 56.59358596801758
C 52.802982330322266 53.4603271484375 57.30268859863281
C 51.39371871948242 51.768768310546875 58.99184799194336
C 52.99275588989258 53.0450439453125 62.828453063964844
C 53.914363861083984 54.15718078613281 57.140499114990234
C 53.05447006225586 50.763832092285156 62.45658874511719
C 57.10154342651367 54.811309814453125 59.46541213989258
C 56.40886306762695 53.96857452392578 57.26951217651367
C 56.566585540771484 54.7086181640625 61.895423889160156
C 54.110721588134766 55.05943298339844 62.093936920166016
C 55.32578659057617 54.57500457763672 62.6092643737793
C 55.176700592041016 55.53318786621094 58.67350769042969
C 52.084102630615234 53.90509033203125 58.40950012207031
C 51.244808197021484 53.132568359375 59.21538162231445
C 52.15700912475586 54.44488525390625 61.07271194458008
C 56.7501335144043 49.128265380859375 59.64176559448242
C 57.3517951965332 50.208587646484375 58.81338882446289
C 55.31656265258789 48.960304260253906 59.10401153564453
C 55.271175384521484 49.69731903076172 57.868751525878906
C 56.5403938293457 52.712791442871094 62.80722427368164
C 57.94272232055664 51.382171630859375 59.33860397338867
C 53.03213119506836 49.750396728515625 61.51304626464844
C 57.86501693725586 53.62274932861328 59.677616119384766
C 57.173404693603516 52.82704162597656 57.55152893066406
C 57.2857551574707 53.550376892089844 61.98029327392578
C 54.17612075805664 48.91016387939453 59.85205078125
C 55.20551681518555 55.815391540527344 60.09944152832031
C 54.081478118896484 55.60163879394531 60.838314056396484
C 51.357662200927734 53.327919006347656 60.61357879638672
C 52.7995719909668 54.99938201904297 58.877723693847656
C 56.80281448364258 49.391693115234375 61.185062408447266
C 57.373294830322266 50.74590301513672 61.57990646362305
C 55.41134262084961 49.508094787597656 61.83574676513672
C 56.56613540649414 51.308799743652344 62.624183654785156
C 52.94389724731445 54.30982208251953 62.20222854614258
C 56.43632888793945 50.455345153808594 57.79216766357422
C 54.22053909301758 49.11779022216797 61.19706726074219
C 55.42377853393555 50.56904602050781 62.74991226196289
C 53.0002555847168 49.45439147949219 59.36083221435547
C 55.34782028198242 53.315025329589844 63.17353439331055
C 58.053401947021484 51.60698699951172 60.717018127441406
C 57.85929489135742 52.646339416503906 58.700679779052734
C 54.09706497192383 50.228050231933594 57.41804504394531
C 56.379581451416016 51.749916076660156 57.13185501098633
C 52.82143783569336 55.295005798339844 60.24628448486328
C 57.97829818725586 52.99140167236328 60.90058517456055
C 54.17536544799805 52.56934356689453 63.265357971191406
C 52.88033676147461 52.038970947265625 57.123077392578125
C 52.190006256103516 51.22966003417969 58.00326919555664
C 51.50032424926758 51.154876708984375 60.252628326416016
C 52.33212661743164 51.959861755371094 62.3154411315918
C 56.38737106323242 54.98834228515625 58.285675048828125
C 56.416561126708984 55.298126220703125 60.59172058105469
C 51.473392486572266 52.115318298339844 61.219932556152344
C 53.96355056762695 55.1282958984375 58.094581604003906
C 57.6762580871582 47.91521453857422 59.495418548583984
N 58.176822662353516 47.50299835205078 60.54928970336914
C 57.6981086730957 48.280311584472656 61.74964904785156
H 58.4815788269043 48.660980224609375 62.409889221191406
H 57.0857048034668 47.757904052734375 62.489044189453125
C 57.090885162353516 45.178016662597656 56.14069747924805
C 56.9465446472168 44.798583984375 57.47105026245117
H 56.5018424987793 43.86333465576172 57.801387786865234
C 57.163822174072266 45.58710479736328 58.557037353515625
H 56.97248458862305 45.308982849121094 59.59029006958008
C 57.53940200805664 46.92162322998047 58.35636901855469
C 57.33794021606445 46.53904724121094 55.96198272705078
H 57.38938522338867 46.912208557128906 54.94233703613281
C 57.66636276245117 47.39513397216797 57.057315826416016
H 58.00031661987305 48.41931915283203 56.91210174560547
C 56.97373580932617 44.16638946533203 55.03200149536133
C 56.58964920043945 42.779869079589844 55.235923767089844
C 57.02218246459961 41.735694885253906 56.12444305419922
H 57.880733489990234 41.7222900390625 56.78772735595703
C 56.19487380981445 40.59912109375 55.78024673461914
H 56.279727935791016 39.601165771484375 56.197509765625
C 55.372432708740234 40.947898864746094 54.76466369628906
N 55.61958694458008 42.25267791748047 54.49433135986328
H 54.94845199584961 42.77787780761719 53.950401306152344
C 54.40642166137695 40.15717315673828 54.06297302246094
H 53.89242172241211 39.381072998046875 54.62812805175781
C 53.719608306884766 40.444793701171875 52.91252899169922
C 52.3632698059082 40.238433837890625 52.7237663269043
H 51.6518669128418 39.91773223876953 53.47761535644531
C 52.046634674072266 40.76146697998047 51.4911003112793
H 51.077823638916016 40.946563720703125 51.03902816772461
C 53.25362014770508 41.232879638671875 50.91343688964844
N 54.2735481262207 41.12134552001953 51.786014556884766
C 53.430965423583984 42.01763153076172 49.66779708862305
C 54.49140548706055 42.798919677734375 49.30731201171875
C 55.29793167114258 42.873313903808594 48.116451263427734
H 55.110042572021484 42.298927307128906 47.2153434753418
C 56.432987213134766 43.59233093261719 48.33995819091797
H 57.25837326049805 43.706207275390625 47.644981384277344
C 56.526790618896484 43.89967346191406 49.689720153808594
N 55.33687973022461 43.47370147705078 50.126739501953125
H 55.067447662353516 43.68116760253906 51.078834533691406
C 57.59397506713867 44.547264099121094 50.323116302490234
H 58.489620208740234 44.80603790283203 49.76028823852539
C 57.77322006225586 44.70503234863281 51.75008773803711
C 58.91634750366211 45.263221740722656 52.42686462402344
H 59.5930061340332 45.902740478515625 51.869754791259766
C 58.70759201049805 45.06935119628906 53.77902603149414
H 59.34213638305664 45.40227508544922 54.59372329711914
C 57.432804107666016 44.55462646484375 53.828983306884766
N 56.961612701416016 44.31023406982422 52.62055587768555
C 50.62846755981445 41.545501708984375 46.35247802734375
C 51.47274398803711 42.69536590576172 46.48859405517578
H 51.474185943603516 43.31697082519531 45.59687423706055
C 52.388431549072266 42.7823486328125 47.58409881591797
H 53.01016616821289 43.67333984375 47.5501708984375
C 52.4278450012207 41.8431396484375 48.592403411865234
C 50.647464752197266 40.638160705566406 47.433204650878906
H 50.11940383911133 39.707664489746094 47.24110794067383
C 51.51044845581055 40.76643371582031 48.5105094909668
H 51.6209831237793 39.97166442871094 49.2437858581543
N 49.887203216552734 41.36781311035156 45.132362365722656
H 49.520076751708984 42.25994110107422 44.83671188354492
C 49.8356819152832 40.26042938232422 44.34085464477539
O 50.55990982055664 39.375144958496094 44.573062896728516
C 48.8684196472168 40.282859802246094 43.150848388671875
C 48.09402084350586 41.33953094482422 42.737606048583984
H 47.99357223510742 42.19248962402344 43.403892517089844
C 47.36124038696289 41.307090759277344 41.56095886230469
C 47.48652267456055 40.16870880126953 40.81884765625
H 46.92331314086914 40.18738555908203 39.88932418823242
C 48.23054885864258 39.01617431640625 41.1161003112793
H 48.233211517333984 38.129127502441406 40.48783874511719
C 48.9522819519043 39.171043395996094 42.29745864868164
H 49.555110931396484 38.338592529296875 42.65128707885742
C 46.4683723449707 42.40052795410156 41.12334060668945
H 46.43484878540039 43.220359802246094 41.83935546875
C 45.7131462097168 42.6068115234375 40.04273223876953
H 45.699703216552734 41.90327453613281 39.21159744262695
C 44.87106704711914 43.782745361328125 39.827030181884766
C 45.49696731567383 45.093482971191406 40.16593933105469
H 46.49258804321289 44.990203857421875 40.602439880371094
H 44.82413101196289 45.63114929199219 40.83726119995117
H 45.72549819946289 45.74067687988281 39.31660079956055
C 43.54818344116211 43.719520568847656 39.442752838134766
H 43.08706283569336 42.74305725097656 39.302005767822266
C 42.62810134887695 44.78764343261719 39.16919708251953
H 43.0922737121582 45.76969909667969 39.09151077270508
C 41.38325881958008 44.61492156982422 38.71177673339844
H 40.93942642211914 43.620643615722656 38.73041534423828
C 40.5001106262207 45.61669158935547 38.22962951660156
C 39.18440628051758 45.12499237060547 37.745811462402344
H 39.25529098510742 45.148773193359375 36.656375885009766
H 38.99337387084961 44.077301025390625 37.98728561401367
H 38.33590316772461 45.75450897216797 38.021888732910156
C 40.794193267822266 46.896324157714844 38.34891128540039
H 41.797672271728516 47.146263122558594 38.69020080566406
C 39.970516204833984 48.04125213623047 37.89501190185547
H 38.940982818603516 47.797340393066406 37.63713455200195
C 40.4103889465332 49.30693817138672 37.991058349609375
H 41.48540115356445 49.422637939453125 38.121070861816406
C 39.66423416137695 50.567710876464844 37.82515335083008
H 38.60930252075195 50.493125915527344 37.56538772583008
C 40.16621017456055 51.804649353027344 37.82731246948242
C 41.5278205871582 52.170257568359375 38.14533233642578
H 41.62749099731445 53.19969177246094 38.4957389831543
H 41.9193000793457 51.44591522216797 38.862648010253906
H 42.12483596801758 52.15434265136719 37.23112487792969
C 39.281978607177734 52.928504943847656 37.45625305175781
H 39.815303802490234 53.755279541015625 36.989410400390625
C 37.975765228271484 52.99547576904297 37.53432846069336
H 37.45791244506836 52.098228454589844 37.870033264160156
C 37.18703079223633 54.01133728027344 36.89468002319336
H 37.826114654541016 54.883277893066406 36.76347732543945
C 35.92417526245117 53.98316955566406 36.393653869628906
C 35.086849212646484 52.78948211669922 36.385135650634766
H 35.62601852416992 51.85279846191406 36.54124450683594
H 34.38300704956055 52.90892791748047 37.211463928222656
H 34.6276741027832 52.676422119140625 35.40083694458008
C 35.272090911865234 55.15858459472656 35.735599517822266
H 35.92099380493164 56.029762268066406 35.658748626708984
C 34.08646011352539 55.281402587890625 35.155521392822266
H 33.34871292114258 54.481422424316406 35.19652557373047
C 33.67636489868164 56.489051818847656 34.485198974609375
C 34.43413162231445 56.991981506347656 33.450008392333984
C 35.662357330322266 56.45112609863281 32.778316497802734
H 35.43587112426758 56.29161071777344 31.72203826904297
H 36.466983795166016 57.17974090576172 32.897281646728516
H 35.912899017333984 55.432777404785156 33.08271026611328
C 34.061580657958984 58.22052764892578 32.68163299560547
H 33.592159271240234 57.97163391113281 31.727609634399414
H 34.96627426147461 58.734161376953125 32.34971237182617
C 33.17704391479492 59.19903564453125 33.552734375
H 32.94941329956055 60.07276916503906 32.93853759765625
H 33.65031051635742 59.583343505859375 34.458709716796875
C 31.95401954650879 58.2996826171875 33.9429931640625
H 31.119409561157227 58.803443908691406 34.43504333496094
H 31.5153751373291 57.85497283935547 33.04728317260742
C 32.34648513793945 57.15522003173828 34.92947006225586
C 32.56916427612305 57.69334411621094 36.30149841308594
H 32.692989349365234 56.9483642578125 37.090248107910156
H 33.496700286865234 58.267913818359375 36.2567024230957
H 31.744081497192383 58.379005432128906 36.50539016723633
C 31.238550186157227 56.22752380371094 35.1193962097168
H 31.103647232055664 55.775596618652344 34.134498596191406
H 31.441064834594727 55.360008239746094 35.75095748901367
H 30.32982063293457 56.71903991699219 35.473060607910156
