207
Triad, Carotenoid-Porphyrin-C60
C 58.43503189086914 51.6300048828125 62.831809997558594
C 57.64154815673828 52.325714111328125 56.522945404052734
C 59.12208938598633 53.30665588378906 57.82737731933594
C 60.22675323486328 53.00603485107422 59.996158599853516
C 56.21199035644531 50.400657653808594 56.49707794189453
C 56.317169189453125 51.776832580566406 56.457603454589844
C 58.58965301513672 50.110435485839844 56.64889144897461
C 60.49544143676758 51.331382751464844 58.2646484375
C 59.294837951660156 49.69941711425781 62.12926483154297
C 57.34904098510742 49.54688262939453 56.57973098754883
C 59.587928771972656 51.949501037597656 62.09026336669922
C 54.585636138916016 48.99861145019531 59.36298370361328
C 55.140594482421875 50.06237030029297 57.266700744628906
C 55.546302795410156 48.581748962402344 61.52568817138672
C 57.8279914855957 47.94672393798828 61.3179931640625
C 56.7951545715332 48.47881317138672 62.088592529296875
C 56.204566955566406 48.06883239746094 58.1086540222168
C 59.381988525390625 49.34771728515625 57.49846649169922
C 60.34886169433594 49.94800567626953 58.2722053527832
C 59.694515228271484 48.48521423339844 60.103763580322266
C 55.721534729003906 54.48027038574219 60.07438278198242
C 54.90951156616211 53.5882568359375 59.20475387573242
C 57.02859878540039 54.475608825683594 59.3085823059082
C 56.779991149902344 54.06690979003906 58.003387451171875
C 55.981689453125 50.47893524169922 62.6759033203125
C 54.194644927978516 52.50025939941406 59.740352630615234
C 59.606101989746094 53.085205078125 61.2686653137207
C 54.053157806396484 50.23352813720703 59.69672775268555
C 54.57615280151367 51.26496124267578 57.71202850341797
C 55.02708435058594 49.840065002441406 61.866607666015625
C 58.282310485839844 54.25599670410156 59.84176254272461
C 56.3570671081543 47.62396240234375 59.4428825378418
C 57.648868560791016 47.43974304199219 59.9759407043457
C 60.52163314819336 49.54363250732422 59.630802154541016
C 58.58445358276367 48.29612731933594 58.00225830078125
C 55.950626373291016 54.00597381591797 61.567657470703125
C 55.21528244018555 52.705780029296875 61.91632843017578
C 57.3339958190918 53.54481506347656 61.96324157714844
C 56.03903579711914 51.882041931152344 62.69598388671875
C 59.07419967651367 48.53681945800781 61.40888977050781
C 55.520755767822266 53.43324279785156 57.96002960205078
C 58.46290588378906 53.818931579589844 61.17975616455078
C 57.2835578918457 52.42620086669922 62.76725769042969
C 59.368892669677734 53.742286682128906 59.09996795654297
C 57.04044723510742 49.67179870605469 62.8385009765625
C 54.32438659667969 52.07658386230469 61.04145431518555
C 54.00160217285156 51.36316680908203 58.94586944580078
C 57.849586486816406 53.420013427734375 57.272735595703125
C 55.32432174682617 52.303871154785156 57.245155334472656
C 58.75381851196289 47.85755920410156 59.253623962402344
C 54.340267181396484 50.69506072998047 60.97085952758789
C 58.31270980834961 50.261444091796875 62.875144958496094
C 58.75863265991211 51.51519775390625 56.613765716552734
C 59.692508697509766 52.095619201660156 57.38435363769531
C 60.80398178100586 51.76806640625 59.53827667236328
C 60.07655334472656 50.73725891113281 61.61750793457031
C 55.11555862426758 48.88629150390625 58.07982635498047
C 55.35543441772461 48.187225341796875 60.207069396972656
C 60.74542236328125 50.673309326171875 60.39863967895508
C 57.32978820800781 48.409523010253906 57.35726547241211
C 55.08186721801758 55.84025573730469 60.181949615478516
N 54.73873519897461 56.134132385253906 61.36540603637695
C 55.31895446777344 55.22252655029297 62.308929443359375
H 54.57993698120117 54.82740020751953 63.01062774658203
H 56.05215072631836 55.71049499511719 62.956199645996094
C 53.24928283691406 57.300025939941406 56.514808654785156
C 54.616455078125 57.31414031982422 56.710933685302734
H 55.291114807128906 57.299888610839844 55.858760833740234
C 55.19149398803711 56.95648193359375 57.90534591674805
H 56.269832611083984 56.89112091064453 58.025691986083984
C 54.445274353027344 56.511329650878906 59.01024627685547
C 52.49691390991211 57.02131652832031 57.68619918823242
H 51.41084671020508 56.97935485839844 57.66958999633789
C 53.051822662353516 56.609840393066406 58.943294525146484
H 52.47185134887695 56.39353942871094 59.83683776855469
C 52.53804016113281 57.46717071533203 55.19477844238281
C 53.40428924560547 57.616615295410156 54.085960388183594
C 54.46091079711914 58.45906066894531 53.8524284362793
H 54.816123962402344 59.303550720214844 54.433712005615234
C 55.04972839355469 58.111351013183594 52.62406921386719
H 55.8697509765625 58.593040466308594 52.101802825927734
C 54.42757034301758 56.97998809814453 52.17369842529297
N 53.39637756347656 56.724388122558594 53.042335510253906
H 52.871971130371094 55.866310119628906 52.93828201293945
C 54.76314926147461 56.09930419921875 51.07508850097656
H 55.786277770996094 56.03990173339844 50.70684814453125
C 53.8900032043457 55.12865447998047 50.56185531616211
C 54.36406326293945 53.9840087890625 49.90504455566406
H 55.39744186401367 53.65333557128906 49.90913009643555
C 53.21160125732422 53.3118896484375 49.50806427001953
H 53.02062225341797 52.34739685058594 49.04924774169922
C 52.069297790527344 54.12205505371094 49.91264724731445
N 52.48530578613281 55.258277893066406 50.53754806518555
C 50.633872985839844 53.842018127441406 49.70189666748047
C 49.66343307495117 53.94336700439453 50.693729400634766
C 48.37989044189453 53.290184020996094 50.87198257446289
H 48.03240203857422 52.47266387939453 50.248966217041016
C 47.67157745361328 53.90614318847656 51.8492546081543
H 46.64168930053711 53.743736267089844 52.14955139160156
C 48.53649139404297 54.7249755859375 52.60618209838867
N 49.68050003051758 54.58905792236328 51.90362548828125
H 50.514835357666016 55.08368682861328 52.188838958740234
C 48.327335357666016 55.52985382080078 53.661094665527344
H 47.283084869384766 55.664642333984375 53.93910598754883
C 49.247764587402344 56.41070556640625 54.36793899536133
C 48.99300003051758 57.41411590576172 55.30952072143555
H 47.94619369506836 57.513275146484375 55.57707977294922
C 50.13280487060547 57.99854278564453 55.767913818359375
H 50.29750061035156 58.763084411621094 56.51995849609375
C 51.128089904785156 57.2835693359375 55.087615966796875
N 50.57543182373047 56.46855926513672 54.179447174072266
C 49.425010681152344 53.43696594238281 45.460018157958984
C 48.44905471801758 53.494293212890625 46.47035217285156
H 47.41345977783203 53.448631286621094 46.1431999206543
C 48.846229553222656 53.603248596191406 47.803707122802734
H 47.9960823059082 53.70274353027344 48.47372055053711
C 50.17388153076172 53.644447326660156 48.23430633544922
C 50.71371078491211 53.4827880859375 45.84504699707031
H 51.530845642089844 53.45392608642578 45.1287841796875
C 51.080387115478516 53.638877868652344 47.166751861572266
H 52.147865295410156 53.75205993652344 47.3377799987793
N 49.176544189453125 53.39408874511719 44.02094650268555
H 49.90613555908203 53.88274383544922 43.523963928222656
C 48.11355209350586 52.789039611816406 43.38479995727539
O 47.32908248901367 52.15619659423828 44.063209533691406
C 48.07439041137695 52.81787109375 41.8515510559082
C 47.26887512207031 51.963157653808594 41.197669982910156
H 46.61564254760742 51.271148681640625 41.72300720214844
C 47.29221725463867 51.89183044433594 39.809532165527344
C 48.09701156616211 52.792503356933594 39.10624313354492
H 48.22721481323242 52.67278289794922 38.033721923828125
C 48.909828186035156 53.74864196777344 39.779075622558594
H 49.57194900512695 54.48066711425781 39.323760986328125
C 48.89010238647461 53.719581604003906 41.12751007080078
H 49.67946243286133 54.305931091308594 41.59083557128906
C 46.41218566894531 50.96430206298828 39.094120025634766
H 45.79039764404297 50.34349822998047 39.73747634887695
C 46.28388595581055 50.78766632080078 37.728763580322266
H 46.870574951171875 51.39250183105469 37.038909912109375
C 45.27913284301758 49.865699768066406 37.126285552978516
C 44.844581604003906 50.081520080566406 35.671226501464844
H 45.45851135253906 50.81846618652344 35.14925003051758
H 43.776466369628906 50.28718566894531 35.5748291015625
H 45.00111389160156 49.105133056640625 35.20793914794922
C 44.77267837524414 48.800323486328125 37.76738739013672
H 45.28457260131836 48.467620849609375 38.66916275024414
C 43.79917907714844 47.855377197265625 37.273521423339844
H 43.094730377197266 48.25574493408203 36.545936584472656
C 43.519798278808594 46.723968505859375 37.906822204589844
H 44.123077392578125 46.444541931152344 38.76931381225586
C 42.596038818359375 45.701805114746094 37.5265998840332
C 42.065406799316406 45.79247283935547 36.125431060791016
H 42.78816223144531 46.23784637451172 35.43860626220703
H 41.89396667480469 44.850425720214844 35.600433349609375
H 41.16395568847656 46.406005859375 36.066917419433594
C 42.18489456176758 44.749061584472656 38.32374572753906
H 42.54671096801758 44.82936096191406 39.34773635864258
C 41.2308464050293 43.66847229003906 38.075496673583984
H 40.77350616455078 43.700950622558594 37.08771514892578
C 40.92911911010742 42.61595916748047 38.875091552734375
H 41.43000411987305 42.45899200439453 39.82923889160156
C 40.06344985961914 41.53889465332031 38.50075149536133
H 39.49327087402344 41.752685546875 37.5979118347168
C 39.93035125732422 40.365989685058594 39.195953369140625
C 40.6526985168457 40.10343933105469 40.503475189208984
H 40.00393295288086 40.49419403076172 41.2901611328125
H 40.88040542602539 39.03996276855469 40.60163879394531
H 41.61317443847656 40.62022399902344 40.449737548828125
C 38.969791412353516 39.29400634765625 38.91727066040039
H 39.16976547241211 38.31555938720703 39.351531982421875
C 38.02944564819336 39.32838439941406 37.96586990356445
H 37.81336212158203 40.221778869628906 37.38185501098633
C 37.27314758300781 38.103111267089844 37.620079040527344
H 37.34756851196289 37.28028106689453 38.32954406738281
C 36.67855453491211 37.74687194824219 36.5095329284668
C 36.54634475708008 38.681434631347656 35.343143463134766
H 37.175228118896484 39.56854248046875 35.44315719604492
H 36.880706787109375 38.08568572998047 34.491233825683594
H 35.48725509643555 38.89515686035156 35.18465805053711
C 36.17937469482422 36.400657653808594 36.312835693359375
H 35.76466751098633 36.22785949707031 35.32082748413086
C 36.028385162353516 35.339080810546875 37.09196090698242
H 36.191070556640625 35.43208312988281 38.16471481323242
C 35.24188232421875 34.18646240234375 36.63282775878906
C 35.72150802612305 33.31953430175781 35.67567443847656
C 37.01957321166992 33.304481506347656 34.95150375366211
H 37.577430725097656 32.400413513183594 35.204345703125
H 36.9251594543457 33.516822814941406 33.884517669677734
H 37.69719696044922 34.09130096435547 35.2894401550293
C 34.83757400512695 32.235755920410156 35.12610626220703
H 35.02196502685547 31.309663772583008 35.67457962036133
H 35.0544319152832 32.048828125 34.07230758666992
C 33.264713287353516 32.41175079345703 35.432167053222656
H 32.74481964111328 31.468599319458008 35.25148391723633
H 32.77967071533203 33.234832763671875 34.90327072143555
C 33.18532943725586 32.67234802246094 36.95265197753906
H 32.123416900634766 32.66791534423828 37.207183837890625
H 33.74582290649414 31.962343215942383 37.56437683105469
C 33.815185546875 34.0445556640625 37.260162353515625
C 32.859779357910156 35.088470458984375 36.694313049316406
H 31.80665397644043 34.825103759765625 36.812721252441406
H 33.0488166809082 36.06188201904297 37.15168762207031
H 33.049110412597656 35.120994567871094 35.619346618652344
C 33.73572540283203 34.190826416015625 38.73406219482422
H 34.0150146484375 35.2086181640625 39.01435470581055
H 32.71030044555664 34.011146545410156 39.06373596191406
H 34.39469909667969 33.428443908691406 39.15476989746094
