207
Triad, Carotenoid-Porphyrin-C60
C 68.27227783203125 54.82481384277344 50.589324951171875
C 64.80989074707031 49.527435302734375 49.849212646484375
C 66.24977111816406 50.47258758544922 48.38678741455078
C 68.12552642822266 52.050193786621094 48.42472839355469
C 64.25074005126953 49.49475860595703 52.220237731933594
C 63.91558837890625 49.71308898925781 50.847450256347656
C 66.42132568359375 48.76476287841797 51.418800354003906
C 68.23016357421875 49.876976013183594 49.62238311767578
C 69.48863983154297 53.4580078125 51.9193115234375
C 65.49636840820312 48.99409484863281 52.47071838378906
C 68.84947204589844 53.82585144042969 49.777076721191406
C 64.45301818847656 52.29817199707031 54.31959533691406
C 63.66162109375 50.45360565185547 52.96815490722656
C 66.2979965209961 53.866455078125 54.358795166015625
C 68.40897369384766 52.76446533203125 53.96257781982422
C 67.65569305419922 53.9423828125 53.984779357910156
C 65.69122314453125 50.44120788574219 54.351951599121094
C 67.7071533203125 49.061988830566406 51.81061553955078
C 68.64116668701172 49.65453338623047 50.9090576171875
C 69.33830261230469 51.13775634765625 52.65618896484375
C 63.886741638183594 53.995643615722656 48.92839050292969
C 63.18938446044922 53.16321563720703 50.008583068847656
C 64.65562438964844 52.80772399902344 48.317779541015625
C 64.17469024658203 51.616851806640625 48.730682373046875
C 66.4876480102539 55.36407470703125 52.66099548339844
C 63.09698486328125 53.552978515625 51.31840515136719
C 68.09143829345703 53.333961486816406 48.702552795410156
C 63.75751495361328 53.17687225341797 53.43122100830078
C 62.88188171386719 51.30516052246094 52.14659118652344
C 65.57841491699219 54.74037170410156 53.55042266845703
C 66.01435852050781 52.80424499511719 47.996299743652344
C 66.52685546875 51.504539489746094 54.748634338378906
C 67.86552429199219 51.578041076660156 54.32086181640625
C 69.45498657226562 50.70331573486328 51.32493591308594
C 67.63409423828125 49.485252380371094 53.17121887207031
C 64.85667419433594 55.06446838378906 49.4224853515625
C 64.79462432861328 55.32756042480469 50.897544860839844
C 66.33039093017578 54.82135009765625 49.25701904296875
C 66.1048583984375 55.58831787109375 51.357994079589844
C 69.34832000732422 52.53697204589844 52.93244934082031
C 63.22706604003906 51.781700134277344 49.73750305175781
C 66.83357238769531 53.813331604003906 48.40245819091797
C 66.95121765136719 55.28944396972656 50.374595642089844
C 66.82096099853516 51.672874450683594 47.93590545654297
C 67.80329895019531 54.91997528076172 52.95887756347656
C 63.95648193359375 54.611785888671875 51.740821838378906
C 62.98560333251953 52.68779754638672 52.408836364746094
C 64.93082427978516 50.41156768798828 48.77268981933594
C 63.07086944580078 50.871925354003906 50.81102752685547
C 68.42586517333984 50.571205139160156 53.547813415527344
C 64.31551361083984 54.33282470703125 53.05155944824219
C 68.72467041015625 54.654396057128906 51.87725067138672
C 66.06124114990234 49.02705383300781 50.114967346191406
C 66.92131042480469 49.5914306640625 49.196441650390625
C 68.78598022460938 51.128074645996094 49.29357147216797
C 69.6098861694336 53.00096130371094 50.618858337402344
C 64.42969512939453 50.96002960205078 54.06730651855469
C 65.755615234375 52.63348388671875 54.729652404785156
C 69.55206298828125 51.613311767578125 50.327392578125
C 66.27180480957031 49.383819580078125 53.58942413330078
C 62.93182373046875 54.72113800048828 47.983970642089844
N 63.14924621582031 55.96137237548828 47.889793395996094
C 64.3187484741211 56.36290740966797 48.701332092285156
H 64.11360168457031 57.209716796875 49.361244201660156
H 65.099365234375 56.677391052246094 48.00392150878906
C 59.27299499511719 53.10387420654297 46.24235534667969
C 60.49568176269531 52.478111267089844 46.0284423828125
H 60.49834442138672 51.595619201660156 45.393798828125
C 61.690460205078125 52.97307586669922 46.60784912109375
H 62.65418243408203 52.66206359863281 46.21276092529297
C 61.69012451171875 54.11103820800781 47.46861267089844
C 59.248939514160156 54.128135681152344 47.28575897216797
H 58.30830383300781 54.36664581298828 47.775535583496094
C 60.450286865234375 54.64576721191406 47.8214111328125
H 60.354522705078125 55.53453063964844 48.43988037109375
C 57.986000061035156 52.67626190185547 45.534088134765625
C 58.028099060058594 51.646278381347656 44.56981658935547
C 58.881919860839844 51.31689453125 43.56407928466797
H 59.76360321044922 51.899314880371094 43.31781768798828
C 58.466697692871094 49.992164611816406 43.00914764404297
H 58.93894958496094 49.45227813720703 42.195064544677734
C 57.305908203125 49.64872741699219 43.66917419433594
N 57.132781982421875 50.57572937011719 44.64685821533203
H 56.3763427734375 50.42597961425781 45.300689697265625
C 56.54216766357422 48.40997314453125 43.521339416503906
H 56.96228790283203 47.61675262451172 42.90471267700195
C 55.28546142578125 48.23176574707031 43.954444885253906
C 54.893516540527344 46.95195770263672 44.41766357421875
H 55.39142608642578 45.99095916748047 44.49375915527344
C 53.69273376464844 47.2724609375 44.97405242919922
H 52.995887756347656 46.698081970214844 45.575477600097656
C 53.339378356933594 48.65351867675781 44.75005340576172
N 54.3267822265625 49.22533416748047 44.110328674316406
C 52.01978302001953 49.25013732910156 44.980018615722656
C 51.80500030517578 50.628501892089844 45.3126220703125
C 50.66102600097656 51.467041015625 45.134620666503906
H 49.71141815185547 51.205711364746094 44.67945861816406
C 51.08648681640625 52.78282165527344 45.36582946777344
H 50.41315460205078 53.633522033691406 45.377952575683594
C 52.46321105957031 52.85401916503906 45.703956604003906
N 52.802635192871094 51.54560852050781 45.61451721191406
H 53.77050018310547 51.361175537109375 45.84111022949219
C 53.273338317871094 53.953041076660156 45.90159606933594
H 52.750343322753906 54.90795135498047 45.924888610839844
C 54.73937225341797 53.96846008300781 45.971717834472656
C 55.486106872558594 55.182037353515625 45.88401794433594
H 55.05176544189453 56.15742492675781 46.076873779296875
C 56.79127502441406 54.819374084472656 45.74317169189453
H 57.63129425048828 55.50068664550781 45.65715789794922
C 56.82048797607422 53.37168884277344 45.75852966308594
N 55.56787109375 52.920013427734375 45.85619354248047
C 48.511497497558594 46.66876983642578 44.7193603515625
C 48.438392639160156 47.84820556640625 45.50651550292969
H 47.510772705078125 48.15620422363281 45.982147216796875
C 49.527854919433594 48.760047912597656 45.553955078125
H 49.328575134277344 49.624000549316406 46.18280029296875
C 50.74102020263672 48.42395782470703 44.97936248779297
C 49.67816925048828 46.387596130371094 44.14422607421875
H 49.80925750732422 45.4207763671875 43.665016174316406
C 50.78208923339844 47.24822998046875 44.301971435546875
H 51.62444305419922 47.01109313964844 43.65717315673828
N 47.40935516357422 45.708824157714844 44.589805603027344
H 47.68224334716797 44.746849060058594 44.454864501953125
C 46.11815643310547 46.004150390625 44.727783203125
O 45.692787170410156 47.104042053222656 44.96563720703125
C 45.20783233642578 44.77659606933594 44.529945373535156
C 44.057037353515625 44.6756591796875 45.3167724609375
H 43.837501525878906 45.49176788330078 46.000389099121094
C 43.186798095703125 43.655677795410156 45.23827362060547
C 43.56913757324219 42.56555938720703 44.39674377441406
H 42.93677520751953 41.681983947753906 44.42803192138672
C 44.67835235595703 42.65900421142578 43.5660400390625
H 44.843421936035156 41.819725036621094 42.895267486572266
C 45.54071807861328 43.784339904785156 43.58655548095703
H 46.40656280517578 43.88213348388672 42.93669509887695
C 41.88227081298828 43.70354461669922 46.03826904296875
H 41.748191833496094 44.61357116699219 46.62120056152344
C 40.825462341308594 42.85478973388672 46.134033203125
H 40.99314880371094 41.93089294433594 45.58247375488281
C 39.534263610839844 42.97071075439453 46.77464294433594
C 39.256744384765625 44.173675537109375 47.577293395996094
H 38.78052520751953 43.91534423828125 48.525413513183594
H 38.433555603027344 44.67431640625 47.06329345703125
H 40.08070373535156 44.8226318359375 47.88128662109375
C 38.523765563964844 42.1260986328125 46.47364044189453
H 38.79534149169922 41.20281982421875 45.96399688720703
C 37.13899230957031 42.214454650878906 46.8443603515625
H 36.76384735107422 43.22407531738281 47.00513458251953
C 36.282379150390625 41.20066833496094 46.840171813964844
H 36.66313171386719 40.224037170410156 46.54497528076172
C 34.84180450439453 41.13054656982422 47.11920166015625
C 34.171348571777344 39.752044677734375 47.04961395263672
H 33.541473388671875 39.64695739746094 47.9354248046875
H 33.65313720703125 39.60881042480469 46.099143981933594
H 34.97437286376953 39.01294708251953 47.08642578125
C 34.210533142089844 42.26806640625 47.322975158691406
H 34.697120666503906 43.22437286376953 47.136878967285156
C 32.783348083496094 42.429168701171875 47.60137939453125
H 32.07189178466797 41.78594207763672 47.085601806640625
C 32.336273193359375 43.40294647216797 48.43408203125
H 33.09650421142578 44.03522491455078 48.890357971191406
C 30.9674072265625 43.762306213378906 48.676551818847656
H 30.301620483398438 43.525001525878906 47.84809875488281
C 30.442138671875 44.31623077392578 49.765838623046875
C 31.232574462890625 44.63152313232422 51.035621643066406
H 30.683433532714844 44.414955139160156 51.954322814941406
H 32.16862487792969 44.070953369140625 50.990509033203125
H 31.43658447265625 45.70246124267578 50.97282409667969
C 29.01296615600586 44.54435729980469 49.82258605957031
H 28.37725067138672 44.267723083496094 48.9827880859375
C 28.278900146484375 45.07612609863281 50.78907775878906
H 28.80514144897461 45.38154602050781 51.69224548339844
C 26.84103012084961 45.337486267089844 50.66687774658203
H 26.358966827392578 45.188880920410156 49.701759338378906
C 26.069957733154297 45.72265625 51.71288299560547
C 26.638385772705078 45.707298278808594 53.142356872558594
H 25.890033721923828 45.92742919921875 53.906532287597656
H 27.01964569091797 44.72132873535156 53.416175842285156
H 27.38735580444336 46.47254943847656 53.35662078857422
C 24.605266571044922 46.00099182128906 51.516395568847656
H 24.423660278320312 46.60344696044922 50.62757873535156
C 23.591400146484375 45.46216583251953 52.188743591308594
H 23.68370819091797 44.83868408203125 53.076812744140625
C 22.13414764404297 45.708763122558594 51.972320556640625
C 21.557239532470703 45.928855895996094 50.7646484375
C 22.159881591796875 45.86842346191406 49.35762023925781
H 22.56128692626953 46.82661437988281 49.02116394042969
H 22.95696258544922 45.12202453613281 49.361572265625
H 21.485050201416016 45.368133544921875 48.65992736816406
C 20.039932250976562 46.22807312011719 50.475311279296875
H 19.47372055053711 45.31951141357422 50.25993347167969
H 19.98907470703125 46.940025329589844 49.64887237548828
C 19.44210433959961 46.91630554199219 51.640106201171875
H 18.358013153076172 47.047393798828125 51.63511657714844
H 20.050518035888672 47.80200958251953 51.83460235595703
C 19.74686050415039 46.001007080078125 52.903282165527344
H 19.271183013916016 46.459571838378906 53.77271270751953
H 19.23519515991211 45.04896545410156 52.74748992919922
C 21.20529556274414 45.763938903808594 53.26771545410156
C 21.706741333007812 46.97978973388672 54.03569793701172
H 22.798583984375 46.99812316894531 54.031715393066406
H 21.439773559570312 47.943214416503906 53.59638214111328
H 21.236785888671875 46.969703674316406 55.02134704589844
C 21.342884063720703 44.54347229003906 54.170867919921875
H 20.587772369384766 44.488670349121094 54.957801818847656
H 21.292522430419922 43.699241638183594 53.480079650878906
H 22.261856079101562 44.631080627441406 54.75420379638672
