207
Triad, Carotenoid-Porphyrin-C60
C 36.60954284667969 42.170799255371094 57.01371383666992
C 42.167320251464844 39.48854064941406 55.219276428222656
C 40.655372619628906 38.81260681152344 56.76930236816406
C 38.34571075439453 39.15235137939453 57.29692077636719
C 42.22743225097656 40.88786315917969 53.18601989746094
C 42.629661560058594 40.61579132080078 54.50027847290039
C 40.80005645751953 38.96266174316406 53.2601432800293
C 38.89988708496094 38.159584045410156 55.18740463256836
C 35.93199920654297 41.28117370605469 55.03463363647461
C 41.308555603027344 40.07215118408203 52.56928634643555
C 36.66040802001953 40.78856658935547 57.13652038574219
C 40.38868713378906 43.945220947265625 52.91337966918945
C 42.126197814941406 42.25763702392578 53.108604431152344
C 38.086761474609375 44.28645324707031 53.460609436035156
C 36.797340393066406 42.307899475097656 53.00273513793945
C 36.96184539794922 43.49891662597656 53.70448684692383
C 40.17168426513672 42.072265625 51.76362609863281
C 39.4334716796875 38.868675231933594 52.993011474609375
C 38.460899353027344 38.39210891723633 53.94204330444336
C 36.92377471923828 40.07767868041992 53.20474624633789
C 41.09636688232422 42.645294189453125 58.355796813964844
C 41.94172668457031 43.01172637939453 57.08675003051758
C 41.06226348876953 41.165367126464844 58.133670806884766
C 42.06056213378906 40.75757598876953 57.27170181274414
C 37.563926696777344 44.456886291503906 55.63716125488281
C 41.513427734375 43.95368957519531 56.13102722167969
C 37.710411071777344 40.26438522338867 57.85610580444336
C 40.777610778808594 44.46483612060547 54.103431701660156
C 42.519676208496094 42.80340576171875 54.30692672729492
C 38.49267578125 44.85249328613281 54.65684509277344
C 39.87091064453125 40.44916915893555 58.27891540527344
C 38.87018585205078 42.68052673339844 51.84994125366211
C 37.74464416503906 41.87388610839844 52.10000991821289
C 37.230506896972656 39.013221740722656 54.05767822265625
C 39.115325927734375 39.88664245605469 52.08131790161133
C 39.76939392089844 43.31517791748047 58.433719635009766
C 39.39984130859375 44.22113800048828 57.24148178100586
C 38.466278076171875 42.475799560546875 58.50064468383789
C 38.04484558105469 44.12183380126953 56.93049240112305
C 36.28807830810547 41.221160888671875 53.696781158447266
C 42.523948669433594 41.90486145019531 56.601287841796875
C 38.621429443359375 41.076499938964844 58.49024200439453
C 37.54026794433594 42.96864318847656 57.640403747558594
C 39.667823791503906 39.21854782104492 57.666412353515625
C 36.63426971435547 43.63188934326172 55.04877471923828
C 40.26507568359375 44.55859375 56.2522087097168
C 41.828636169433594 43.870819091796875 54.79605484008789
C 41.8328857421875 39.575439453125 56.5230827331543
C 42.88177490234375 41.790802001953125 55.229331970214844
C 37.857704162597656 40.47611618041992 52.182373046875
C 39.82994079589844 44.874420166015625 54.99697494506836
C 36.12865447998047 42.463478088378906 55.70576477050781
C 41.25334930419922 38.6385383605957 54.573692321777344
C 40.26786804199219 38.2934684753418 55.5033073425293
C 37.972984313964844 38.558982849121094 56.07450485229492
C 36.222557067871094 40.23265075683594 55.95414352416992
C 41.085289001464844 42.88030242919922 52.42258834838867
C 39.057945251464844 43.887413024902344 52.499568939208984
C 36.93335723876953 39.100685119628906 55.405582427978516
C 40.25267028808594 40.64147186279297 51.87957763671875
C 41.818443298339844 43.08325958251953 59.65465545654297
N 41.180511474609375 43.886573791503906 60.384422302246094
C 39.88823699951172 44.202247619628906 59.74006652832031
H 39.90210723876953 45.25892639160156 59.46095275878906
H 39.083030700683594 44.026641845703125 60.4580192565918
C 46.13346862792969 43.24681854248047 59.87299346923828
C 45.51476287841797 42.01136016845703 59.5667724609375
H 46.06945037841797 41.076576232910156 59.57536315917969
C 44.139251708984375 41.92951965332031 59.602115631103516
H 43.629051208496094 40.97932434082031 59.46647644042969
C 43.31658935546875 43.093162536621094 59.69760513305664
C 45.32341003417969 44.316429138183594 60.143375396728516
H 45.84523010253906 45.24566650390625 60.35732650756836
C 43.958770751953125 44.277931213378906 60.0761833190918
H 43.426963806152344 45.216819763183594 60.2075080871582
C 47.60730743408203 43.406166076660156 59.957489013671875
C 48.435516357421875 42.346824645996094 59.47652053833008
C 48.597251892089844 40.959861755371094 59.81319808959961
H 48.052284240722656 40.405906677246094 60.57040786743164
C 49.638763427734375 40.45402526855469 59.03788757324219
H 50.022361755371094 39.445640563964844 59.152923583984375
C 50.06309509277344 41.40617370605469 58.198036193847656
N 49.290855407714844 42.456886291503906 58.40534973144531
H 49.42125701904297 43.34343719482422 57.937225341796875
C 51.23607635498047 41.34954833984375 57.36185836791992
H 51.67768096923828 40.36016845703125 57.252174377441406
C 51.6922607421875 42.38917541503906 56.53744888305664
C 51.42933654785156 42.28851318359375 55.17586135864258
H 50.92753601074219 41.50707244873047 54.61481857299805
C 51.89830780029297 43.51756286621094 54.7442626953125
H 51.95362091064453 43.86598205566406 53.71821594238281
C 52.436363220214844 44.328582763671875 55.835819244384766
N 52.271827697753906 43.590980529785156 56.943878173828125
C 52.7069091796875 45.70661163330078 55.753990173339844
C 52.39032745361328 46.617462158203125 56.7306022644043
C 53.26972961425781 47.571319580078125 57.35438537597656
H 54.24769592285156 47.81617736816406 56.953311920166016
C 52.72955322265625 48.03063201904297 58.55403137207031
H 53.020843505859375 48.72949981689453 59.33118438720703
C 51.56159973144531 47.216041564941406 58.843910217285156
N 51.37616729736328 46.45860290527344 57.72648620605469
H 50.55096435546875 45.87451171875 57.72407531738281
C 50.73651123046875 47.23340606689453 59.917388916015625
H 50.973426818847656 48.001678466796875 60.651939392089844
C 49.61805725097656 46.32830047607422 60.24983215332031
C 48.73271179199219 46.42926788330078 61.379032135009766
H 48.759910583496094 47.18511962890625 62.156959533691406
C 47.93964385986328 45.33381652832031 61.30047607421875
H 47.217628479003906 45.136070251464844 62.08584976196289
C 48.19390869140625 44.628761291503906 60.15945816040039
N 49.22908020019531 45.257789611816406 59.53447723388672
C 54.94135284423828 47.14497375488281 52.27865219116211
C 54.16059875488281 48.04754638671875 52.99846649169922
H 54.01209259033203 49.089866638183594 52.728153228759766
C 53.50575256347656 47.617774963378906 54.174583435058594
H 52.975433349609375 48.388710021972656 54.72774887084961
C 53.45612335205078 46.236297607421875 54.57756805419922
C 54.907249450683594 45.81700134277344 52.629154205322266
H 55.603904724121094 45.11647033691406 52.17582702636719
C 54.14756774902344 45.378570556640625 53.75151062011719
H 54.35779571533203 44.36454772949219 54.081886291503906
N 55.75531768798828 47.52948760986328 51.219520568847656
H 56.68425750732422 47.13560485839844 51.21610641479492
C 55.425689697265625 48.354034423828125 50.1882209777832
O 54.275779724121094 48.77918243408203 50.102996826171875
C 56.52471923828125 48.77106475830078 49.195011138916016
C 56.17680358886719 49.2613525390625 47.92534255981445
H 55.13471984863281 49.345008850097656 47.627620697021484
C 57.13910675048828 49.55303192138672 46.950069427490234
C 58.46092987060547 49.25639343261719 47.26874923706055
H 59.252784729003906 49.326446533203125 46.527381896972656
C 58.81608581542969 48.86542510986328 48.576454162597656
H 59.86670684814453 48.61779022216797 48.70466995239258
C 57.872222900390625 48.6983642578125 49.530643463134766
H 58.15038299560547 48.485923767089844 50.55975341796875
C 56.65580749511719 50.00157928466797 45.683528900146484
H 55.57018280029297 50.059532165527344 45.6204719543457
C 57.348297119140625 50.29673767089844 44.59280014038086
H 58.428489685058594 50.17041778564453 44.53657913208008
C 56.79771423339844 50.99665832519531 43.414939880371094
C 55.29643249511719 50.88243103027344 43.14601135253906
H 54.930076599121094 51.528465270996094 42.345462799072266
H 54.63542938232422 50.840660095214844 44.01422119140625
H 55.21543884277344 49.94587707519531 42.590335845947266
C 57.57855987548828 51.743682861328125 42.604339599609375
H 58.625 51.766944885253906 42.90491485595703
C 57.288917541503906 52.431549072265625 41.36417770385742
H 56.28235626220703 52.400733947753906 40.94968032836914
C 58.12770080566406 53.369773864746094 40.83074951171875
H 59.136146545410156 53.440284729003906 41.235713958740234
C 57.89872741699219 54.28333282470703 39.687294006347656
C 58.906044006347656 55.33851623535156 39.583805084228516
H 59.40985870361328 55.25426483154297 38.61864471435547
H 58.54974365234375 56.31678009033203 39.91322708129883
H 59.73863220214844 55.11048889160156 40.25258255004883
C 56.761451721191406 54.28497314453125 38.99033737182617
H 56.13916778564453 53.41602325439453 39.19916915893555
C 56.40327453613281 55.15882873535156 37.87752151489258
H 57.0469970703125 55.97956085205078 37.564571380615234
C 55.24652099609375 55.04130554199219 37.219879150390625
H 54.597991943359375 54.260581970214844 37.61459732055664
C 54.86241149902344 56.02314758300781 36.16904830932617
H 55.64637756347656 56.64239501953125 35.735633850097656
C 53.64708709716797 56.150962829589844 35.63097381591797
C 52.42420959472656 55.5684814453125 36.13182067871094
H 52.46937561035156 55.48234558105469 37.219478607177734
H 51.49834442138672 56.07478332519531 35.850948333740234
H 52.449058532714844 54.58116912841797 35.66591262817383
C 53.41600799560547 57.141014099121094 34.58876419067383
H 52.65502166748047 56.83704376220703 33.87152099609375
C 54.02223205566406 58.299163818359375 34.445735931396484
H 54.66765594482422 58.574737548828125 35.278446197509766
C 53.55864715576172 59.259735107421875 33.43404006958008
H 52.67137908935547 59.10203552246094 32.82263946533203
C 54.265472412109375 60.299659729003906 33.13190460205078
C 55.509613037109375 60.715301513671875 33.82121658325195
H 55.39060974121094 60.630706787109375 34.903411865234375
H 56.29829406738281 60.02466583251953 33.51548385620117
H 55.820655822753906 61.71216583251953 33.50187683105469
C 53.83103942871094 61.23479461669922 32.067378997802734
H 54.570556640625 61.484832763671875 31.308094024658203
C 52.57655334472656 61.773902893066406 31.869117736816406
H 51.79352569580078 61.440345764160156 32.54846954345703
C 52.164306640625 62.656150817871094 30.787153244018555
C 52.390281677246094 62.444801330566406 29.506103515625
C 53.12517547607422 61.249481201171875 28.97083854675293
H 52.827735900878906 60.91472625732422 27.97488784790039
H 54.20733642578125 61.36241149902344 29.06382179260254
H 52.86864471435547 60.517601013183594 29.73961067199707
C 52.01746368408203 63.38255310058594 28.360715866088867
H 51.770973205566406 62.90601348876953 27.409603118896484
H 52.93378448486328 63.940269470214844 28.156322479248047
C 50.79267120361328 64.29358673095703 28.781320571899414
H 49.88873291015625 63.68165588378906 28.811466217041016
H 50.59320068359375 65.13555145263672 28.11516571044922
C 51.143226623535156 64.94298553466797 30.168350219726562
H 52.008544921875 65.58440399169922 29.988719940185547
H 50.276817321777344 65.52947235107422 30.48113250732422
C 51.342063903808594 63.902000427246094 31.338520050048828
C 52.09972381591797 64.64276123046875 32.44838333129883
H 51.52790069580078 65.43953704833984 32.92862319946289
H 52.46155548095703 64.0482406616211 33.289859771728516
H 52.97911834716797 65.19464111328125 32.10990524291992
C 49.97211456298828 63.51445770263672 31.945167541503906
H 49.38359069824219 64.37154388427734 32.27907943725586
H 49.274269104003906 62.91813659667969 31.353662490844727
H 50.07837677001953 62.976280212402344 32.88937759399414
