207
Triad, Carotenoid-Porphyrin-C60
C 35.703067779541016 35.30690383911133 54.99964141845703
C 37.56508255004883 40.967891693115234 56.7755012512207
C 36.319786071777344 40.5141716003418 55.01354217529297
C 34.94727325439453 38.63418197631836 54.27891540527344
C 38.31897735595703 40.26066207885742 58.92859649658203
C 38.603450775146484 40.63126754760742 57.61037826538086
C 35.99262619018555 40.611087799072266 58.507572174072266
C 34.46210861206055 39.8127555847168 56.306243896484375
C 34.28867721557617 35.623172760009766 56.73560333251953
C 37.00413513183594 40.147945404052734 59.31698989868164
C 34.851375579833984 36.32231521606445 54.691768646240234
C 38.96551513671875 36.8654899597168 59.57042694091797
C 39.20534896850586 39.21159744262695 59.27598571777344
C 37.56889724731445 34.92098617553711 58.91576385498047
C 35.2202262878418 35.47768020629883 58.95222854614258
C 36.25308609008789 34.640323638916016 58.48344039916992
C 37.32548904418945 38.00687026977539 60.46118927001953
C 34.88203430175781 39.74514389038086 58.62477493286133
C 34.085140228271484 39.39894485473633 57.52739334106445
C 33.883018493652344 37.235103607177734 58.500492095947266
C 39.595462799072266 37.895938873291016 54.039180755615234
C 40.19293975830078 38.28329849243164 55.408050537109375
C 38.439544677734375 38.94523239135742 54.0427131652832
C 38.684104919433594 39.92576217651367 54.95914077758789
C 37.67949295043945 34.41032028198242 56.73931121826172
C 40.40461730957031 37.29513931274414 56.4305534362793
C 35.35287857055664 37.33109664916992 53.91527557373047
C 39.88786697387695 36.63462448120117 58.52853775024414
C 40.05093765258789 38.96804428100586 58.15930938720703
C 38.45402145385742 34.7273063659668 57.85847854614258
C 37.09092330932617 38.62099075317383 53.697288513183594
C 36.847904205322266 36.66495895385742 60.27095413208008
C 35.545562744140625 36.457035064697266 59.88502502441406
C 33.625335693359375 38.13718795776367 57.46934127807617
C 35.200592041015625 38.8474006652832 59.651649475097656
C 39.026580810546875 36.38511276245117 53.94976043701172
C 39.16864776611328 35.6391487121582 55.212677001953125
C 37.5301628112793 36.26815414428711 53.71303176879883
C 38.04326248168945 34.863460540771484 55.41907501220703
C 34.22426986694336 35.93516159057617 58.10372543334961
C 39.689964294433594 39.509464263916016 55.83829116821289
C 36.68820571899414 37.36530685424805 53.5134162902832
C 37.02753829956055 35.2805061340332 54.554222106933594
C 36.07660675048828 39.4306526184082 54.14757537841797
C 36.3455810546875 34.32533645629883 57.106658935546875
C 39.96523666381836 36.00027847290039 56.35896682739258
C 40.38885498046875 37.6297721862793 57.78688049316406
C 37.59667205810547 40.706233978271484 55.44258499145508
C 39.663761138916016 39.90663528442383 57.19171905517578
C 34.73284149169922 37.5413932800293 59.565059661865234
C 39.59321212768555 35.57710647583008 57.65044021606445
C 35.34886169433594 34.82033157348633 56.259376525878906
C 36.23698043823242 41.06431198120117 57.210350036621094
C 35.47165298461914 40.70615768432617 56.12560272216797
C 34.12992477416992 38.81608963012695 55.38860321044922
C 33.96879196166992 36.551151275634766 55.72866439819336
C 38.66733932495117 38.08298110961914 59.98910903930664
C 37.88160705566406 35.95847702026367 59.80961990356445
C 33.56231689453125 37.80887985229492 56.10498809814453
C 36.513851165771484 39.069644927978516 60.054901123046875
C 40.56514358520508 37.99064254760742 52.93215560913086
N 40.65691375732422 36.89059066772461 52.31151580810547
C 39.856040954589844 35.717777252197266 52.819068908691406
H 40.54583740234375 34.897525787353516 53.033599853515625
H 39.19519805908203 35.29679489135742 52.05702590942383
C 43.217796325683594 41.33864212036133 52.815887451171875
C 43.62220764160156 40.097042083740234 53.16465377807617
H 44.62880325317383 39.94887161254883 53.5472526550293
C 42.82298278808594 38.96144485473633 53.12919616699219
H 43.26609802246094 38.01218795776367 53.41923904418945
C 41.503910064697266 39.08897018432617 52.7291259765625
C 41.98362350463867 41.41904067993164 52.23162078857422
H 41.64773178100586 42.36589431762695 51.816627502441406
C 41.13488006591797 40.2997932434082 52.149593353271484
H 40.21992492675781 40.29665756225586 51.562721252441406
C 44.2161979675293 42.47429275512695 52.85734558105469
C 45.55435562133789 42.24900436401367 53.32610321044922
C 46.10474395751953 41.99689865112305 54.5694694519043
H 45.52199935913086 41.765560150146484 55.45497131347656
C 47.51259994506836 41.874813079833984 54.4629020690918
H 48.244083404541016 41.52859878540039 55.18559646606445
C 47.846927642822266 42.18727493286133 53.13440704345703
N 46.65544509887695 42.37778091430664 52.516666412353516
H 46.57080841064453 42.567745208740234 51.527286529541016
C 49.124629974365234 42.28095626831055 52.46785354614258
H 49.972415924072266 41.804683685302734 52.958106994628906
C 49.40361785888672 42.78306198120117 51.20830535888672
C 50.13435363769531 42.10541915893555 50.221961975097656
H 50.5794563293457 41.15190505981445 50.48639678955078
C 49.962677001953125 42.80898666381836 49.09955978393555
H 50.2513542175293 42.560977935791016 48.083499908447266
C 49.18031692504883 44.01057052612305 49.37498092651367
N 48.89057540893555 43.97468948364258 50.70417785644531
C 48.84664535522461 45.04946517944336 48.3879280090332
C 47.745567321777344 45.91096115112305 48.58081817626953
C 47.73754119873047 47.38772964477539 48.54767608642578
H 48.66030502319336 47.950984954833984 48.455604553222656
C 46.52117919921875 47.784236907958984 49.06485366821289
H 46.0679817199707 48.7534294128418 49.24516677856445
C 45.87992477416992 46.679019927978516 49.709712982177734
N 46.596275329589844 45.61418533325195 49.26771926879883
H 46.31551742553711 44.70302200317383 49.604000091552734
C 44.66394805908203 46.5529899597168 50.320106506347656
H 44.075477600097656 47.46928787231445 50.31634521484375
C 44.13941192626953 45.3983268737793 50.9653434753418
C 42.81460952758789 45.4116096496582 51.58869171142578
H 42.22615432739258 46.32248306274414 51.624202728271484
C 42.77978515625 44.354488372802734 52.43058776855469
H 42.037044525146484 44.22446823120117 53.210750579833984
C 43.89990997314453 43.64006423950195 52.23294448852539
N 44.67555236816406 44.260433197021484 51.31379699707031
C 51.761016845703125 46.13785934448242 45.335784912109375
C 50.55942916870117 46.756832122802734 45.34434509277344
H 50.38359069824219 47.58501052856445 44.66259765625
C 49.60164260864258 46.352962493896484 46.30674362182617
H 48.61248779296875 46.796451568603516 46.22633743286133
C 49.821197509765625 45.44210433959961 47.338226318359375
C 52.16272735595703 45.30118942260742 46.430145263671875
H 53.1273078918457 44.805721282958984 46.505374908447266
C 51.156455993652344 44.959102630615234 47.2934455871582
H 51.49198532104492 44.326419830322266 48.111183166503906
N 52.70762634277344 46.54984664916992 44.364959716796875
H 52.62818145751953 47.52884292602539 44.133995056152344
C 53.6724853515625 45.7880744934082 43.76576614379883
O 53.8294563293457 44.60285568237305 44.04825210571289
C 54.46467971801758 46.4654655456543 42.631690979003906
C 54.64419174194336 47.85178756713867 42.7044792175293
H 54.455345153808594 48.37673568725586 43.63739776611328
C 55.1436767578125 48.5293083190918 41.62040710449219
C 55.39651870727539 47.82857894897461 40.435791015625
H 55.57002639770508 48.40530776977539 39.530887603759766
C 55.18035125732422 46.47731399536133 40.355953216552734
H 55.30611801147461 45.9578742980957 39.409420013427734
C 54.711463928222656 45.74800491333008 41.45351791381836
H 54.395843505859375 44.7126579284668 41.3535041809082
C 55.43319320678711 49.933536529541016 41.724300384521484
H 55.02364730834961 50.45466232299805 42.58837127685547
C 56.003971099853516 50.81480026245117 40.86035919189453
H 56.39398193359375 50.44808578491211 39.912025451660156
C 56.311824798583984 52.25480270385742 41.06492614746094
C 55.92903518676758 52.97013473510742 42.253665924072266
H 56.67809295654297 52.82981491088867 43.0357780456543
H 54.9605827331543 52.5500373840332 42.5330924987793
H 55.73748779296875 54.03450393676758 42.102352142333984
C 57.05169677734375 52.94234848022461 40.25740432739258
H 57.37649917602539 52.42428207397461 39.35627365112305
C 57.49815368652344 54.32570266723633 40.36692810058594
H 57.462223052978516 54.851810455322266 41.31973648071289
C 58.19612503051758 55.04457473754883 39.47688674926758
H 58.409122467041016 54.507755279541016 38.55364227294922
C 58.52887725830078 56.4554557800293 39.518741607666016
C 59.35276412963867 56.92512893676758 38.3289680480957
H 60.37838363647461 56.86625289916992 38.69923400878906
H 59.110504150390625 56.27968215942383 37.48210144042969
H 59.09994125366211 57.9370231628418 38.005523681640625
C 58.21615982055664 57.322452545166016 40.50731658935547
H 57.60850524902344 56.92067337036133 41.316795349121094
C 58.68952178955078 58.65217971801758 40.672447204589844
H 59.38167953491211 59.11601638793945 39.97124099731445
C 58.39927291870117 59.48698043823242 41.63779067993164
H 57.746551513671875 59.1433219909668 42.438899993896484
C 58.89748001098633 60.81502151489258 41.73463439941406
H 59.316349029541016 61.197818756103516 40.80514907836914
C 58.75130844116211 61.6546516418457 42.777587890625
C 58.249717712402344 61.128360748291016 44.09691619873047
H 58.30561447143555 60.03892135620117 44.04743957519531
H 58.87060546875 61.4929084777832 44.91793441772461
H 57.235130310058594 61.478397369384766 44.29829406738281
C 59.13301467895508 63.05864334106445 42.83910369873047
H 58.50471878051758 63.679927825927734 43.47563934326172
C 60.07307815551758 63.64913558959961 42.106414794921875
H 60.60738754272461 63.055606842041016 41.366031646728516
C 60.297142028808594 65.09197235107422 42.028282165527344
H 59.45448303222656 65.65119171142578 42.43217468261719
C 61.22404479980469 65.68163299560547 41.34360122680664
C 62.224327087402344 64.97576141357422 40.5162239074707
H 61.89227294921875 64.69818878173828 39.513648986816406
H 63.169212341308594 65.52313995361328 40.51002883911133
H 62.55190658569336 64.07483673095703 41.0391845703125
C 61.351985931396484 67.10050964355469 41.165382385253906
H 62.08627700805664 67.38725280761719 40.41403579711914
C 60.74574279785156 68.0969467163086 41.84233474731445
H 60.08820343017578 67.93268585205078 42.69473648071289
C 60.907020568847656 69.50782775878906 41.547889709472656
C 60.622947692871094 69.94117736816406 40.33536911010742
C 60.150123596191406 69.22377014160156 39.0272102355957
H 59.40584182739258 69.77100372314453 38.444942474365234
H 61.03292465209961 69.01368713378906 38.419761657714844
H 59.819854736328125 68.24687194824219 39.386451721191406
C 60.6684455871582 71.39244079589844 39.94636535644531
H 59.691436767578125 71.87797546386719 39.993045806884766
H 61.011436462402344 71.56362915039062 38.923858642578125
C 61.50433349609375 72.2835922241211 40.87446594238281
H 61.51879119873047 73.33641815185547 40.58498001098633
H 62.55946731567383 72.08867645263672 40.67158126831055
C 60.931396484375 71.92689514160156 42.248172760009766
H 61.435733795166016 72.56651306152344 42.97549819946289
H 59.8608283996582 72.13853454589844 42.28759002685547
C 61.2100715637207 70.45012664794922 42.67259216308594
C 62.622352600097656 70.38412475585938 43.134090423583984
H 62.788822174072266 69.34322357177734 43.41918182373047
H 63.19937515258789 70.51795959472656 42.21670150756836
H 62.93503952026367 71.0881118774414 43.9080924987793
C 60.31248474121094 70.27857971191406 43.877254486083984
H 60.43479537963867 71.17096710205078 44.4946174621582
H 59.27743148803711 70.28834533691406 43.52935791015625
H 60.300086975097656 69.35431671142578 44.45868682861328
