207
Triad, Carotenoid-Porphyrin-C60
C 61.22566604614258 37.747379302978516 60.166893005371094
C 60.35324478149414 44.067317962646484 60.965370178222656
C 58.878456115722656 42.38565444946289 61.13713073730469
C 58.900577545166016 40.040958404541016 61.521240234375
C 62.776092529296875 44.43129348754883 61.02313232421875
C 61.56644821166992 44.44167709350586 60.302391052246094
C 61.648380279541016 43.53789138793945 62.92567443847656
C 59.753028869628906 41.50880813598633 63.20147705078125
C 62.235355377197266 37.96071243286133 62.17742156982422
C 62.84239959716797 43.99602127075195 62.3004150390625
C 60.235198974609375 38.07668685913086 61.09257507324219
C 65.15492248535156 42.1262321472168 59.659393310546875
C 63.74567413330078 43.977176666259766 60.08558654785156
C 65.1152572631836 39.763057708740234 60.0225830078125
C 64.40235137939453 39.118106842041016 62.28041076660156
C 64.58110046386719 38.82748031616211 60.922698974609375
C 64.83990478515625 42.735294342041016 61.863914489746094
C 61.93487548828125 42.4919548034668 63.754310607910156
C 61.00990676879883 41.441410064697266 63.87220764160156
C 62.82203674316406 39.809810638427734 63.677879333496094
C 60.00930404663086 41.348567962646484 57.10245132446289
C 61.16998291015625 42.3452033996582 57.32912063598633
C 59.19845199584961 41.7064323425293 58.36567306518555
C 59.613033294677734 42.97126388549805 58.925689697265625
C 63.60577392578125 38.50570297241211 58.910545349121094
C 62.54022979736328 42.091793060302734 57.24300003051758
C 59.27288055419922 38.9915657043457 60.65705871582031
C 64.48365783691406 41.974613189697266 58.4072151184082
C 63.09995651245117 43.81459426879883 58.79591369628906
C 64.50623321533203 39.54240798950195 58.76661682128906
C 58.767276763916016 40.807498931884766 59.37153625488281
C 65.27392578125 41.39395523071289 61.826263427734375
C 64.70941925048828 40.40485763549805 62.72990417480469
C 61.46556854248047 40.133060455322266 63.74992370605469
C 63.261756896972656 42.193660736083984 63.606788635253906
C 60.557373046875 39.82896041870117 57.191749572753906
C 62.08895492553711 39.67918014526367 57.29991149902344
C 60.19423294067383 39.02186965942383 58.42401885986328
C 62.40934753417969 38.646976470947266 58.220157623291016
C 63.231300354003906 38.70059585571289 62.89244842529297
C 60.77662658691406 43.358638763427734 58.23516845703125
C 59.24373245239258 39.47800827026367 59.379844665527344
C 61.215919494628906 38.212825775146484 58.848392486572266
C 58.64377212524414 41.12038040161133 60.701148986816406
C 63.643062591552734 38.07316207885742 60.224891662597656
C 63.01556396484375 40.751834869384766 57.23838806152344
C 63.475303649902344 42.8046760559082 57.94783020019531
C 59.47330856323242 43.26552200317383 60.25169372558594
C 61.72258758544922 44.12226486206055 58.9361457824707
C 63.72083282470703 40.8875617980957 63.61530303955078
C 64.19929504394531 40.679508209228516 57.98093032836914
C 62.42491912841797 37.69355392456055 60.82670593261719
C 60.380043029785156 43.69765853881836 62.30768585205078
C 59.47768783569336 42.61990737915039 62.40797424316406
C 59.51118087768555 40.2180290222168 62.77998352050781
C 60.87886047363281 38.29416275024414 62.292572021484375
C 64.78177642822266 43.17375564575195 60.49993896484375
C 65.48326873779297 41.05149459838867 60.50048828125
C 60.52091598510742 39.35043716430664 63.100730895996094
C 63.846282958984375 43.12662887573242 62.70689392089844
C 59.308738708496094 41.36942672729492 55.77445602416992
N 59.5036735534668 40.34895706176758 55.032779693603516
C 60.18763732910156 39.2637825012207 55.8167839050293
H 61.126041412353516 38.95936965942383 55.34627151489258
H 59.52717971801758 38.39571762084961 55.88685607910156
C 56.077030181884766 44.33430099487305 54.790733337402344
C 57.383445739746094 44.7079963684082 55.224891662597656
H 57.614803314208984 45.76993179321289 55.24325942993164
C 58.43777847290039 43.77798843383789 55.55194091796875
H 59.43939971923828 44.12944412231445 55.78603744506836
C 58.205684661865234 42.41084671020508 55.44257354736328
C 56.02473068237305 42.97636795043945 54.48111343383789
H 55.08702087402344 42.60708999633789 54.07379913330078
C 56.971527099609375 42.0129280090332 54.88027572631836
H 56.664920806884766 40.971134185791016 54.8331413269043
C 55.011234283447266 45.33432388305664 54.46013259887695
C 55.22983932495117 46.76559066772461 54.73164367675781
C 55.523258209228516 47.39712142944336 55.91570281982422
H 55.667606353759766 46.897769927978516 56.86809158325195
C 55.479454040527344 48.7978630065918 55.7061882019043
H 55.50080871582031 49.58295822143555 56.454776763916016
C 55.094383239746094 48.92342758178711 54.379276275634766
N 54.93882751464844 47.7133674621582 53.8260612487793
H 54.66463088989258 47.55129623413086 52.86654281616211
C 54.8610725402832 50.164676666259766 53.641395568847656
H 55.50779342651367 50.99795150756836 53.91217803955078
C 54.212650299072266 50.29121017456055 52.46015930175781
C 54.674869537353516 51.17384719848633 51.53203582763672
H 55.466270446777344 51.876773834228516 51.77036666870117
C 53.85572814941406 50.98055648803711 50.36021423339844
H 53.98454284667969 51.3619499206543 49.352657318115234
C 52.851497650146484 50.00495529174805 50.782325744628906
N 53.1336555480957 49.56380081176758 52.00510025024414
C 51.75670623779297 49.53116226196289 49.935428619384766
C 51.17856216430664 48.32102584838867 50.21577453613281
C 49.813011169433594 47.9053840637207 49.957088470458984
H 49.026283264160156 48.50761795043945 49.51482009887695
C 49.53185272216797 46.65555953979492 50.459571838378906
H 48.53380584716797 46.27859115600586 50.657135009765625
C 50.63892364501953 46.16672134399414 51.23667907714844
N 51.56523513793945 47.183467864990234 50.99362564086914
H 52.452003479003906 47.17618942260742 51.47913360595703
C 50.735107421875 45.13302993774414 52.08341979980469
H 49.87643051147461 44.465335845947266 52.13616943359375
C 51.789894104003906 44.74827194213867 52.930755615234375
C 51.8277702331543 43.78756332397461 54.030113220214844
H 51.067779541015625 43.08256912231445 54.3504638671875
C 53.08300018310547 43.980716705322266 54.70622634887695
H 53.51620101928711 43.3847541809082 55.502716064453125
C 53.771400451660156 44.922245025634766 53.970176696777344
N 52.96500778198242 45.3593864440918 52.97075271606445
C 50.23367691040039 51.9539680480957 46.650333404541016
C 50.01252746582031 50.60441970825195 46.638519287109375
H 49.42649459838867 50.1995964050293 45.817386627197266
C 50.43071746826172 49.82095718383789 47.77446746826172
H 50.258697509765625 48.74784469604492 47.75409698486328
C 51.262874603271484 50.39667892456055 48.83012390136719
C 50.982547760009766 52.52873611450195 47.63372802734375
H 51.27337646484375 53.57413101196289 47.56943130493164
C 51.48461151123047 51.78609848022461 48.73328399658203
H 52.03693771362305 52.26448440551758 49.53805923461914
N 49.686851501464844 52.67777633666992 45.565887451171875
H 48.81068420410156 52.279544830322266 45.26285171508789
C 50.10744857788086 53.88047409057617 45.14878463745117
O 51.23716735839844 54.26820755004883 45.22003936767578
C 49.09422302246094 54.752925872802734 44.4278678894043
C 47.74379348754883 54.52805709838867 44.35847473144531
H 47.303504943847656 53.595211029052734 44.70125961303711
C 46.87982177734375 55.50613021850586 43.79825210571289
C 47.3450927734375 56.73109817504883 43.35298538208008
H 46.612449645996094 57.45156478881836 42.9984016418457
C 48.70881271362305 57.03681564331055 43.468265533447266
H 49.07769775390625 57.97671127319336 43.06565856933594
C 49.54850387573242 56.10853958129883 44.02549743652344
H 50.572715759277344 56.42855453491211 44.199134826660156
C 45.408973693847656 55.24152755737305 43.83406066894531
H 45.172813415527344 54.266605377197266 44.25794219970703
C 44.376583099365234 55.980350494384766 43.41666030883789
H 44.62118911743164 56.89346694946289 42.87600326538086
C 42.99919891357422 55.55763626098633 43.372798919677734
C 42.52012634277344 54.50565719604492 44.31740188598633
H 42.383487701416016 53.606876373291016 43.71243667602539
H 41.632606506347656 54.880008697509766 44.83182144165039
H 43.14853286743164 54.30593490600586 45.18784713745117
C 42.16815948486328 56.140560150146484 42.488525390625
H 42.67852783203125 56.935794830322266 41.94719314575195
C 40.78032302856445 55.89689254760742 42.226341247558594
H 40.42101287841797 55.05318069458008 42.813690185546875
C 39.901607513427734 56.54189682006836 41.410400390625
H 40.296878814697266 57.3759651184082 40.83246612548828
C 38.50065231323242 56.30451583862305 41.157833099365234
C 37.717010498046875 55.494075775146484 42.143333435058594
H 38.150306701660156 55.603206634521484 43.139732360839844
H 36.70676803588867 55.8913688659668 42.26178741455078
H 37.71825408935547 54.44865798950195 41.827796936035156
C 37.87850570678711 56.72218704223633 40.03525924682617
H 38.439697265625 57.3663215637207 39.359928131103516
C 36.54522705078125 56.347896575927734 39.61090087890625
H 36.02715301513672 55.50654220581055 40.068763732910156
C 35.9781379699707 56.95198440551758 38.561729431152344
H 36.52145767211914 57.801761627197266 38.1511116027832
C 34.79941177368164 56.480281829833984 37.91650390625
H 34.47748565673828 55.486324310302734 38.223628997802734
C 34.09213638305664 57.0590934753418 37.003929138183594
C 34.28836441040039 58.47689437866211 36.52800369262695
H 34.94356155395508 58.51887130737305 35.65541458129883
H 33.321048736572266 58.89020919799805 36.23485565185547
H 34.719146728515625 59.22190475463867 37.20020294189453
C 32.886112213134766 56.460750579833984 36.512725830078125
H 32.16164016723633 56.14118576049805 37.26034927368164
C 32.40230178833008 56.49058151245117 35.27302551269531
H 33.08309555053711 56.86884689331055 34.511871337890625
C 31.111690521240234 56.0429573059082 34.84101104736328
H 30.614990234375 55.52475357055664 35.65995788574219
C 30.573169708251953 56.03756332397461 33.640174865722656
C 31.222043991088867 56.72597885131836 32.473915100097656
H 31.97971534729004 56.0251350402832 32.11723709106445
H 30.489038467407227 56.91556930541992 31.687013626098633
H 31.782737731933594 57.575679779052734 32.8690071105957
C 29.250503540039062 55.5020637512207 33.368194580078125
H 28.715816497802734 55.29569625854492 34.29417419433594
C 28.629905700683594 55.17067337036133 32.26923751831055
H 29.136369705200195 55.33506393432617 31.319303512573242
C 27.337635040283203 54.43263626098633 32.12544250488281
C 26.16021156311035 54.8259162902832 32.775909423828125
C 26.001001358032227 56.04397201538086 33.639610290527344
H 26.956260681152344 56.57169723510742 33.601478576660156
H 25.281925201416016 56.740779876708984 33.203895568847656
H 25.76584815979004 55.82101821899414 34.68242263793945
C 24.829736709594727 54.155521392822266 32.59540939331055
H 24.24553108215332 54.83601760864258 31.972444534301758
H 24.375690460205078 54.13461685180664 33.588321685791016
C 24.975637435913086 52.78245162963867 31.88203239440918
H 23.98195457458496 52.47903823852539 31.545881271362305
H 25.31830596923828 51.979610443115234 32.53813934326172
C 25.927078247070312 52.88960647583008 30.6846866607666
H 25.95786476135254 51.99208450317383 30.063413619995117
H 25.56020164489746 53.72194290161133 30.08046531677246
C 27.31991958618164 53.23484420776367 31.142892837524414
C 27.9650936126709 52.02170181274414 31.793020248413086
H 27.524070739746094 51.14878463745117 31.307260513305664
H 29.05264663696289 52.0556755065918 31.700620651245117
H 27.727222442626953 51.91347885131836 32.8532829284668
C 28.171648025512695 53.45047378540039 29.85536003112793
H 28.083189010620117 52.58295822143555 29.198057174682617
H 27.79796028137207 54.31753158569336 29.306692123413086
H 29.2265567779541 53.639583587646484 30.0648136138916
