207
Triad, Carotenoid-Porphyrin-C60
C 53.95475769042969 64.84416198730469 41.96812438964844
C 54.596595764160156 64.3628921508789 48.351226806640625
C 55.87379455566406 63.52766418457031 46.722469329833984
C 56.35737609863281 63.845130920410156 44.41034698486328
C 52.99144744873047 66.14334106445312 48.535892486572266
C 53.29510498046875 64.78121185302734 48.65337371826172
C 55.200439453125 66.74057006835938 47.93879318237305
C 56.831382751464844 65.63510131835938 46.01590347290039
C 54.69822692871094 66.88520812988281 42.393062591552734
C 53.911041259765625 67.12879943847656 48.24155044555664
C 55.244903564453125 64.72339630126953 42.46133041381836
C 50.533485412597656 67.09070587158203 46.16604995727539
C 51.647216796875 66.23750305175781 48.07929229736328
C 50.98936462402344 67.48273468017578 43.77211380004883
C 53.191490173339844 68.4266357421875 43.460968017578125
C 52.0640869140625 67.7586441040039 42.90943145751953
C 52.27802276611328 68.22926330566406 46.91304016113281
C 55.74656677246094 67.5676040649414 47.03369903564453
C 56.535240173339844 67.03453826904297 46.0068473815918
C 55.22700500488281 68.26400756835938 44.31271743774414
C 52.3734130859375 61.74517822265625 45.222137451171875
C 51.603355407714844 62.60664367675781 46.260231018066406
C 53.740089416503906 62.002479553222656 45.73634719848633
C 53.712486267089844 62.538307189941406 47.038856506347656
C 51.337554931640625 65.61287689208984 42.48722839355469
C 50.63652801513672 63.55732727050781 45.936927795410156
C 55.57826232910156 63.646217346191406 43.265525817871094
C 50.05085754394531 65.79312896728516 45.89456558227539
C 51.22601318359375 64.98875427246094 47.76719665527344
C 50.582557678222656 66.15071105957031 43.50819396972656
C 54.818077087402344 62.30731201171875 44.93538284301758
C 52.077537536621094 68.61979675292969 45.62143325805664
C 53.20067596435547 68.85218048095703 44.79621505737305
C 56.24207305908203 67.38704681396484 44.678096771240234
C 54.684303283691406 68.48196411132812 46.654869079589844
C 52.13459777832031 62.15674591064453 43.68620681762695
C 51.20097351074219 63.34815979003906 43.52685546875
C 53.34553527832031 62.73956298828125 43.03363800048828
C 51.63654327392578 64.214599609375 42.575809478759766
C 54.48658752441406 68.05329895019531 43.18296813964844
C 52.41099548339844 62.885658264160156 47.35941696166992
C 54.63127136230469 62.67842102050781 43.60334777832031
C 52.976051330566406 63.836578369140625 42.26604461669922
C 55.89392852783203 63.08872985839844 45.45512390136719
C 52.28668975830078 66.58501434326172 42.15688705444336
C 50.50480651855469 63.92626953125 44.60016632080078
C 50.40655517578125 64.67845916748047 46.74147415161133
C 54.79808807373047 63.29841613769531 47.530277252197266
C 52.17921447753906 64.05484771728516 48.096412658691406
C 54.442230224609375 68.8092269897461 45.30458068847656
C 50.12077331542969 65.29251098632812 44.59432601928711
C 53.602928161621094 66.17842102050781 41.97085952758789
C 55.585662841796875 65.34081268310547 48.04355239868164
C 56.361968994140625 64.80789947509766 47.03954315185547
C 56.83573913574219 65.1135025024414 44.72803497314453
C 55.71076965332031 65.99202728271484 42.777496337890625
C 51.28227233886719 67.28860473632812 47.290855407714844
C 50.958229064941406 67.9647445678711 45.14466094970703
C 56.438697814941406 66.2517318725586 43.907440185546875
C 53.5887451171875 68.23290252685547 47.454261779785156
C 51.952232360839844 60.23799133300781 45.21165466308594
N 51.72819519042969 59.856544494628906 43.98828125
C 51.586524963378906 60.88764190673828 42.98930740356445
H 50.529449462890625 61.1248779296875 42.844512939453125
H 52.12367248535156 60.755287170410156 42.04664611816406
C 53.025856018066406 57.523399353027344 48.51797866821289
C 52.16352844238281 58.59584045410156 48.69318389892578
H 51.80205535888672 58.88518524169922 49.67664337158203
C 51.780181884765625 59.499053955078125 47.63447189331055
H 51.12348175048828 60.359153747558594 47.73712158203125
C 52.23963165283203 59.28455352783203 46.341915130615234
C 53.309417724609375 57.284568786621094 47.16254806518555
H 53.828590393066406 56.344879150390625 46.992191314697266
C 52.97541046142578 58.13008117675781 46.104286193847656
H 53.34007263183594 57.912811279296875 45.10359191894531
C 53.61194610595703 56.693260192871094 49.61568069458008
C 53.24253845214844 57.053611755371094 50.942962646484375
C 53.361366271972656 58.223785400390625 51.57328796386719
H 53.64325714111328 59.19469451904297 51.17946243286133
C 52.94783020019531 58.045066833496094 52.94416427612305
H 52.94916534423828 58.880592346191406 53.636348724365234
C 52.67882537841797 56.72344970703125 53.190982818603516
N 52.818389892578125 56.161842346191406 51.934818267822266
H 52.78617858886719 55.15406036376953 51.86093521118164
C 52.4483642578125 56.029541015625 54.41140365600586
H 52.249237060546875 56.70805358886719 55.23958969116211
C 52.346160888671875 54.68342590332031 54.65194320678711
C 52.23699188232422 54.063255310058594 55.91459274291992
H 52.37620544433594 54.49676513671875 56.89944076538086
C 52.43730163574219 52.71246337890625 55.695316314697266
H 52.595848083496094 51.938377380371094 56.43887710571289
C 52.52882385253906 52.51832580566406 54.26944351196289
N 52.459373474121094 53.698768615722656 53.61391067504883
C 52.60626983642578 51.32347869873047 53.50127029418945
C 53.63609313964844 51.134765625 52.60416030883789
C 54.591949462890625 50.08184051513672 52.507938385009766
H 54.58643341064453 49.163543701171875 53.08579635620117
C 55.594329833984375 50.41780090332031 51.565494537353516
H 56.48973846435547 49.92497253417969 51.20136260986328
C 55.19190979003906 51.64653778076172 50.95038604736328
N 54.03594207763672 51.972740173339844 51.605201721191406
H 53.54474639892578 52.84242248535156 51.44868469238281
C 55.855926513671875 52.38172149658203 50.04480743408203
H 56.825531005859375 52.00812530517578 49.718910217285156
C 55.507545471191406 53.749244689941406 49.623497009277344
C 56.320472717285156 54.60265350341797 48.85788345336914
H 57.321617126464844 54.272552490234375 48.60105514526367
C 55.67717742919922 55.81299591064453 48.73748779296875
H 55.94190979003906 56.72306823730469 48.20936965942383
C 54.460487365722656 55.62934112548828 49.396812438964844
N 54.38597869873047 54.41272735595703 49.93629837036133
C 49.083587646484375 48.736122131347656 53.53994369506836
C 50.262046813964844 48.36174011230469 52.90095138549805
H 50.40098571777344 47.384300231933594 52.446102142333984
C 51.34008026123047 49.19561004638672 52.79475021362305
H 52.19132995605469 48.8843994140625 52.19467544555664
C 51.41151428222656 50.40178680419922 53.52810287475586
C 49.05286407470703 49.92467498779297 54.26448440551758
H 48.184425354003906 50.21046447753906 54.85246658325195
C 50.25678253173828 50.69111633300781 54.307987213134766
H 50.306907653808594 51.583045959472656 54.92727279663086
N 47.93157958984375 47.91699981689453 53.62443161010742
H 47.41667175292969 48.10246276855469 54.472110748291016
C 47.432594299316406 47.01042175292969 52.713138580322266
O 48.12084197998047 46.639404296875 51.7598762512207
C 46.08836364746094 46.36341857910156 52.967594146728516
C 45.850868225097656 45.041595458984375 52.60532760620117
H 46.62007141113281 44.399635314941406 52.18368148803711
C 44.53448486328125 44.528053283691406 52.78438186645508
C 43.5177001953125 45.30894470214844 53.28647994995117
H 42.55500793457031 44.82140350341797 53.41720199584961
C 43.78837585449219 46.6226806640625 53.623165130615234
H 43.03681945800781 47.182533264160156 54.173885345458984
C 45.086395263671875 47.10266876220703 53.54389572143555
H 45.31342315673828 48.12340545654297 53.840763092041016
C 44.28143310546875 43.120948791503906 52.364078521728516
H 45.15331268310547 42.552589416503906 52.043582916259766
C 43.04927062988281 42.486541748046875 52.26857376098633
H 42.191978454589844 43.04882049560547 52.6357536315918
C 42.707923889160156 41.187889099121094 51.77899169921875
C 41.413299560546875 40.520263671875 52.31035232543945
H 41.701416015625 39.51660919189453 52.629947662353516
H 40.697471618652344 40.399688720703125 51.49456024169922
H 41.019859313964844 41.01643371582031 53.20000076293945
C 43.58990478515625 40.448081970214844 51.09585189819336
H 44.432823181152344 41.01188659667969 50.69894790649414
C 43.61353302001953 39.011077880859375 50.82834243774414
H 42.647216796875 38.51685333251953 50.73945999145508
C 44.67689514160156 38.222564697265625 50.66580581665039
H 45.62419891357422 38.740150451660156 50.52214431762695
C 44.6558837890625 36.78590393066406 50.44361877441406
C 45.79637908935547 36.03633117675781 51.16609573364258
H 45.622886657714844 35.901283264160156 52.2357292175293
H 46.00989532470703 35.06666564941406 50.7115364074707
H 46.69507598876953 36.61888122558594 50.95293426513672
C 43.704612731933594 36.14134216308594 49.78451919555664
H 42.95262145996094 36.82658386230469 49.3961067199707
C 43.63787078857422 34.648048400878906 49.54484176635742
H 44.5335693359375 34.06459045410156 49.75273513793945
C 42.45130920410156 34.05186462402344 49.327171325683594
H 41.551002502441406 34.66438293457031 49.34115982055664
C 42.30531311035156 32.54881286621094 49.39265441894531
H 43.22802734375 32.06602478027344 49.71113967895508
C 41.24299621582031 31.833724975585938 49.156959533691406
C 39.946807861328125 32.43159484863281 48.7509651184082
H 39.2056884765625 31.64105987548828 48.61585235595703
H 39.597991943359375 33.19677734375 49.44758605957031
H 40.109092712402344 33.013214111328125 47.84110641479492
C 41.236305236816406 30.385589599609375 49.3553352355957
H 41.571617126464844 30.00977325439453 50.32086181640625
C 40.988670349121094 29.484901428222656 48.34925079345703
H 40.622528076171875 29.824111938476562 47.38136672973633
C 41.22898864746094 28.07672119140625 48.52680206298828
H 41.690277099609375 27.781265258789062 49.46799087524414
C 40.933013916015625 27.086036682128906 47.701725006103516
C 40.420860290527344 27.54776382446289 46.362125396728516
H 41.17535400390625 28.169200897216797 45.87529373168945
H 40.208282470703125 26.83087158203125 45.56629943847656
H 39.549407958984375 28.205276489257812 46.38896560668945
C 41.06752014160156 25.65987777709961 47.95914077758789
H 42.00209045410156 25.435314178466797 48.4710807800293
C 40.383094787597656 24.66916275024414 47.37086486816406
H 39.476356506347656 24.791683197021484 46.78031921386719
C 40.63256072998047 23.237056732177734 47.373443603515625
C 41.200408935546875 22.541885375976562 48.37342834472656
C 41.70985412597656 23.084171295166016 49.69456481933594
H 42.74584197998047 23.428028106689453 49.72529602050781
H 41.09962463378906 23.938739776611328 49.99424362182617
H 41.607749938964844 22.422183990478516 50.5570068359375
C 41.458709716796875 21.03565216064453 48.37180709838867
H 41.22789001464844 20.701000213623047 49.38531494140625
H 42.518592834472656 20.856346130371094 48.1795539855957
C 40.69471740722656 20.236526489257812 47.26913070678711
H 39.64795684814453 20.100242614746094 47.54874038696289
H 41.15955352783203 19.251850128173828 47.1866340637207
C 40.879119873046875 21.068927764892578 45.903480529785156
H 41.925567626953125 21.306198120117188 45.70072937011719
H 40.489952087402344 20.422039031982422 45.114463806152344
C 40.156394958496094 22.43740463256836 46.073177337646484
C 40.423492431640625 23.222183227539062 44.835960388183594
H 40.06575012207031 22.664108276367188 43.96818542480469
H 39.865089416503906 24.150985717773438 44.7018928527832
H 41.478126525878906 23.504478454589844 44.813133239746094
C 38.64923095703125 22.115070343017578 46.05121994018555
H 38.33454132080078 21.645244598388672 46.98540115356445
H 38.029685974121094 23.006717681884766 45.93460464477539
H 38.27220153808594 21.52233123779297 45.21518325805664
