207
Triad, Carotenoid-Porphyrin-C60
C 31.758705139160156 56.555145263671875 51.489688873291016
C 37.1243782043457 55.581520080566406 54.75522232055664
C 36.788482666015625 56.95259094238281 53.01369857788086
C 34.98954772949219 58.06379318237305 51.90958786010742
C 35.83474349975586 54.38100814819336 56.466678619384766
C 36.726314544677734 54.36152267456055 55.3621711730957
C 35.93338394165039 56.86243438720703 56.37372970581055
C 35.46116638183594 58.5726318359375 54.24282455444336
C 31.29871368408203 57.684730529785156 53.393924713134766
C 35.441864013671875 55.63326644897461 56.94157028198242
C 32.61799240112305 57.68894577026367 51.6102180480957
C 32.615962982177734 52.96476364135742 56.05160140991211
C 34.963829040527344 53.35883712768555 56.33363723754883
C 30.713722229003906 53.984886169433594 54.9189338684082
C 30.851268768310547 56.42876434326172 55.40206527709961
C 30.432907104492188 55.30498123168945 54.63335037231445
C 33.24344253540039 54.7685432434082 57.26851272583008
C 34.86015701293945 57.72161102294922 56.44136428833008
C 34.59703826904297 58.5565071105957 55.316524505615234
C 32.263893127441406 58.18193817138672 55.59462356567383
C 35.28715133666992 53.55681228637695 51.073604583740234
C 35.426910400390625 52.80204772949219 52.427608489990234
C 36.07396697998047 54.7983283996582 51.38419723510742
C 36.81400680541992 54.54783630371094 52.57157516479492
C 30.867435455322266 54.20236587524414 52.673648834228516
C 34.28108596801758 52.22232437133789 53.034420013427734
C 33.931434631347656 57.51648712158203 51.164371490478516
C 32.93167495727539 52.24726486206055 54.84684371948242
C 35.29405975341797 52.656063079833984 55.20273971557617
C 31.02740478515625 53.30392074584961 53.72916030883789
C 35.64118957519531 56.0960578918457 51.065731048583984
C 31.949344635009766 54.91266632080078 56.86153030395508
C 31.57830810546875 56.240760803222656 56.54860305786133
C 33.31834411621094 58.80080032348633 54.928348541259766
C 33.80095291137695 57.1016731262207 57.075260162353516
C 33.817928314208984 53.68878173828125 50.4810905456543
C 32.72169494628906 53.1708984375 51.44608688354492
C 33.41188049316406 55.17733383178711 50.44290542602539
C 31.72042465209961 54.13788986206055 51.544864654541016
C 31.259563446044922 57.63445281982422 54.77785873413086
C 36.40242385864258 53.418182373046875 53.21525192260742
C 34.30735397338867 56.29037857055664 50.5758171081543
C 32.19017028808594 55.35337448120117 50.971012115478516
C 36.02437210083008 57.1651725769043 51.869564056396484
C 30.464744567871094 55.4302978515625 53.2103385925293
C 33.01185607910156 52.438079833984375 52.583614349365234
C 34.26830291748047 52.1297607421875 54.4373893737793
C 37.15164566040039 55.643978118896484 53.34463882446289
C 36.35237503051758 53.318817138671875 54.622249603271484
C 32.46056365966797 57.326358795166016 56.69797134399414
C 32.205963134765625 52.45640563964844 53.68312454223633
C 30.91119384765625 56.58766555786133 52.56172561645508
C 36.812103271484375 56.80221939086914 55.31674575805664
C 36.569580078125 57.649078369140625 54.226566314697266
C 34.66690444946289 58.77716827392578 53.084285736083984
C 32.320133209228516 58.351566314697266 52.77031326293945
C 33.63544845581055 53.53909683227539 56.748592376708984
C 31.542621612548828 53.82610321044922 56.069156646728516
C 33.33892059326172 58.89809799194336 53.5170783996582
C 34.171512603759766 55.79509735107422 57.4137077331543
C 35.962379455566406 52.85972595214844 49.93965530395508
N 35.2360725402832 52.43975830078125 48.98186111450195
C 33.83559799194336 52.85027313232422 49.17721939086914
H 33.11714172363281 52.026588439941406 49.17301559448242
H 33.67098617553711 53.431114196777344 48.26607894897461
C 40.12247085571289 51.7349967956543 49.56583023071289
C 39.224769592285156 50.973453521728516 50.328548431396484
H 39.5122184753418 50.0252799987793 50.77565383911133
C 37.86627197265625 51.30807876586914 50.41572952270508
H 37.207130432128906 50.58430480957031 50.88823318481445
C 37.374168395996094 52.474151611328125 49.88736343383789
C 39.650909423828125 52.972137451171875 49.08273696899414
H 40.272743225097656 53.547767639160156 48.40189743041992
C 38.307960510253906 53.31635284423828 49.2955436706543
H 37.9485969543457 54.2640380859375 48.902706146240234
C 41.55833053588867 51.29011154174805 49.394039154052734
C 41.91266632080078 50.012901306152344 50.041996002197266
C 42.09819793701172 49.58992004394531 51.371212005615234
H 41.847816467285156 50.17289352416992 52.25136947631836
C 42.635047912597656 48.26597213745117 51.34941482543945
H 42.900482177734375 47.607295989990234 52.16972732543945
C 42.73645782470703 47.84429168701172 50.055606842041016
N 42.271671295166016 48.882083892822266 49.28305435180664
H 42.28255844116211 48.86128616333008 48.2723274230957
C 43.27663803100586 46.656349182128906 49.4805793762207
H 42.812984466552734 45.737186431884766 49.83566665649414
C 44.0909309387207 46.56827163696289 48.400447845458984
C 43.94700241088867 45.50400161743164 47.53367233276367
H 43.30534744262695 44.64237976074219 47.68569564819336
C 44.752708435058594 45.83460998535156 46.492061614990234
H 44.81398010253906 45.324180603027344 45.536582946777344
C 45.2891960144043 47.15867614746094 46.6809196472168
N 44.89631271362305 47.5918083190918 47.8881721496582
C 46.08820343017578 47.86824417114258 45.68552017211914
C 46.178802490234375 49.19021987915039 45.516700744628906
C 47.15450668334961 50.068729400634766 44.91353225708008
H 48.03496170043945 49.82558822631836 44.32795715332031
C 46.93397903442383 51.370418548583984 45.32062911987305
H 47.62202072143555 52.20304870605469 45.21788024902344
C 45.80836486816406 51.45415115356445 46.1746711730957
N 45.3861083984375 50.1607666015625 46.192935943603516
H 44.54449462890625 49.83351135253906 46.647586822509766
C 45.36875915527344 52.538448333740234 46.81306076049805
H 46.00665283203125 53.40301513671875 46.63547897338867
C 44.21524429321289 52.63578414916992 47.64481735229492
C 43.77065658569336 53.79572677612305 48.4327278137207
H 44.320518493652344 54.72990417480469 48.38588333129883
C 42.70178985595703 53.356468200683594 49.17335891723633
H 42.15052032470703 53.83394241333008 49.976688385009766
C 42.50521469116211 52.034175872802734 48.815616607666016
N 43.428871154785156 51.67848205566406 47.926448822021484
C 48.306766510009766 45.43418884277344 42.781471252441406
C 47.890254974365234 46.75889587402344 42.47919845581055
H 48.07050704956055 47.158267974853516 41.48442077636719
C 47.2308235168457 47.470947265625 43.38833236694336
H 46.85720443725586 48.46003341674805 43.13597106933594
C 46.8847541809082 47.018165588378906 44.691715240478516
C 47.8677864074707 44.92499923706055 43.97616958618164
H 48.11335372924805 43.87858581542969 44.138301849365234
C 47.25014114379883 45.69224548339844 44.931129455566406
H 47.19578170776367 45.2943000793457 45.94121170043945
N 49.09456253051758 44.70294189453125 41.93021774291992
H 49.64565658569336 44.03643035888672 42.44996643066406
C 49.06318283081055 44.60242462158203 40.59504699707031
O 48.178462982177734 45.1612548828125 39.98508834838867
C 50.04446792602539 43.656333923339844 40.01043701171875
C 51.37087631225586 43.63404083251953 40.55683517456055
H 51.4986457824707 44.26876449584961 41.42997360229492
C 52.2417106628418 42.69751739501953 40.04254150390625
C 51.844600677490234 41.77703094482422 39.03042984008789
H 52.52299118041992 41.04328536987305 38.602664947509766
C 50.52912521362305 41.88217544555664 38.41099548339844
H 50.23310470581055 41.238380432128906 37.586692810058594
C 49.67045211791992 42.787357330322266 38.947452545166016
H 48.64370346069336 42.83052444458008 38.59321212768555
C 53.56648635864258 42.7177734375 40.63916778564453
H 53.650150299072266 43.496524810791016 41.395782470703125
C 54.670345306396484 41.98984909057617 40.41613006591797
H 54.646724700927734 41.1783447265625 39.69029998779297
C 55.87614822387695 42.00249481201172 41.24460983276367
C 55.60105514526367 42.125946044921875 42.71239471435547
H 54.53122329711914 42.028221130371094 42.90826416015625
H 55.8382682800293 43.14671325683594 43.01936340332031
H 56.21428298950195 41.42672348022461 43.28468322753906
C 57.13832473754883 41.94744873046875 40.78928756713867
H 57.25856399536133 42.06236267089844 39.71306228637695
C 58.32207107543945 41.992923736572266 41.5844841003418
H 58.19206619262695 41.706275939941406 42.62700653076172
C 59.54548263549805 42.28119659423828 41.09630584716797
H 59.66215133666992 42.413509368896484 40.02168655395508
C 60.80476760864258 42.40915298461914 41.78960037231445
C 61.98221969604492 42.565616607666016 40.84429168701172
H 61.75075912475586 42.33885192871094 39.80147171020508
H 62.40668869018555 43.57167053222656 40.83201599121094
H 62.77231979370117 41.89039993286133 41.179386138916016
C 61.059566497802734 42.37404251098633 43.09552001953125
H 60.211788177490234 42.38649368286133 43.7789192199707
C 62.38912582397461 42.51557922363281 43.710304260253906
H 63.170406341552734 43.00645065307617 43.13188934326172
C 62.5223274230957 42.330509185791016 44.964576721191406
H 61.66580581665039 42.07231140136719 45.5855598449707
C 63.76262283325195 42.619503021240234 45.594661712646484
H 64.66850280761719 42.53124237060547 44.996726989746094
C 63.98945999145508 42.93244171142578 46.836002349853516
C 62.88093948364258 43.032772064208984 47.82309341430664
H 62.50587844848633 42.07726287841797 48.19565200805664
H 63.16934585571289 43.70410919189453 48.63462448120117
H 62.03670120239258 43.583560943603516 47.40314865112305
C 65.35902404785156 43.129600524902344 47.31961441040039
H 66.0739517211914 42.51505661010742 46.77450942993164
C 65.757568359375 43.7338981628418 48.43716812133789
H 65.03593444824219 44.374149322509766 48.9423942565918
C 67.11319732666016 43.52537536621094 48.875308990478516
H 67.84616088867188 43.061649322509766 48.21677780151367
C 67.58436584472656 43.959983825683594 50.051944732666016
C 66.69884490966797 44.640235900878906 51.083309173583984
H 65.98796844482422 43.92375183105469 51.500179290771484
H 67.1767807006836 45.043556213378906 51.9785041809082
H 66.22295379638672 45.56552505493164 50.75190353393555
C 68.95877075195312 43.998897552490234 50.424434661865234
H 69.1498031616211 44.38486862182617 51.42466354370117
C 70.02367401123047 43.64848709106445 49.698909759521484
H 69.88793182373047 43.15458679199219 48.73788833618164
C 71.40126037597656 43.893898010253906 50.17995071411133
C 71.85501861572266 45.1773567199707 50.47739791870117
C 71.12640380859375 46.48790740966797 50.247196197509766
H 70.49732208251953 46.72209167480469 51.108516693115234
H 71.68940734863281 47.38738250732422 49.989437103271484
H 70.46578979492188 46.29761505126953 49.39876174926758
C 73.17951202392578 45.5281867980957 50.96627426147461
H 73.07003784179688 46.37929153442383 51.64162826538086
H 73.79373168945312 45.91946029663086 50.1525764465332
C 74.02899169921875 44.38042068481445 51.51932907104492
H 73.64549255371094 44.045833587646484 52.485477447509766
H 75.07814025878906 44.62229537963867 51.7016716003418
C 73.904052734375 43.303348541259766 50.365840911865234
H 74.1180419921875 43.62900924682617 49.34573745727539
H 74.60725402832031 42.49076843261719 50.559993743896484
C 72.48416900634766 42.70535659790039 50.278194427490234
C 72.58979034423828 41.890159606933594 48.96876907348633
H 71.6290512084961 41.37111282348633 48.97554397583008
H 72.69789123535156 42.5753288269043 48.125370025634766
H 73.40336608886719 41.161991119384766 48.9505500793457
C 72.32935333251953 41.649810791015625 51.4858512878418
H 73.1172103881836 40.893760681152344 51.49711990356445
H 72.2642593383789 42.03773880004883 52.50455093383789
H 71.30754089355469 41.27914810180664 51.381046295166016
