207
Triad, Carotenoid-Porphyrin-C60
C 39.1577033996582 67.32862854003906 49.32008743286133
C 44.84651565551758 65.44812774658203 51.309993743896484
C 44.22177505493164 65.75929260253906 49.17894744873047
C 42.38936996459961 66.89881896972656 47.932594299316406
C 44.36539077758789 66.07966613769531 53.61594009399414
C 44.56096267700195 65.10465240478516 52.63147735595703
C 44.928890228271484 67.77161407470703 51.9619255065918
C 44.083438873291016 68.12759399414062 49.246097564697266
C 39.99763870239258 69.21096801757812 50.12900924682617
C 44.5548210144043 67.43236541748047 53.27518844604492
C 40.20830154418945 67.67552185058594 48.537803649902344
C 40.9988899230957 66.47093963623047 54.797279357910156
C 43.216426849365234 65.74864959716797 54.37025451660156
C 39.27377700805664 67.61788940429688 53.62882995605469
C 40.110721588134766 69.590576171875 52.43008804321289
C 39.104427337646484 68.63278198242188 52.67923355102539
C 42.54668045043945 68.04436492919922 54.46092987060547
C 44.363712310791016 68.98368835449219 51.64466094970703
C 43.90580368041992 69.10777282714844 50.22542953491211
C 41.94283676147461 70.06328582763672 51.14155197143555
C 41.06235122680664 63.08657455444336 50.258541107177734
C 41.556209564208984 63.17048263549805 51.657005310058594
C 42.20820236206055 63.80557632446289 49.57154083251953
C 43.34418869018555 63.85366439819336 50.402278900146484
C 38.27900314331055 66.66880798339844 51.89069747924805
C 40.78732681274414 63.63117599487305 52.707008361816406
C 41.001834869384766 66.67186737060547 48.012535095214844
C 40.54867935180664 65.24467468261719 54.24092102050781
C 42.72392654418945 64.54508209228516 53.9022216796875
C 38.68989181518555 66.42058563232422 53.21631622314453
C 42.04225540161133 64.7490234375 48.619232177734375
C 41.35261917114258 68.64635467529297 54.22335433959961
C 41.24801254272461 69.60285186767578 53.21347427368164
C 42.73129653930664 69.73119354248047 50.0364990234375
C 43.564029693603516 69.35394287109375 52.702293395996094
C 39.71883010864258 63.75542068481445 50.01919174194336
C 39.03713607788086 64.37848663330078 51.21050262451172
C 39.69998550415039 64.98662567138672 49.121299743652344
C 38.49284744262695 65.65886688232422 50.92768859863281
C 40.509464263916016 69.934326171875 51.1672477722168
C 42.97536087036133 63.46529006958008 51.70566940307617
C 40.79916763305664 65.34664916992188 48.376075744628906
C 38.857669830322266 65.99364471435547 49.64143371582031
C 43.0594367980957 65.72213745117188 48.383460998535156
C 38.55574417114258 67.99964141845703 51.57363510131836
C 39.559452056884766 64.2520751953125 52.55329132080078
C 41.38764572143555 64.2667007446289 53.78586959838867
C 44.31764602661133 64.81318664550781 50.21952819824219
C 43.50735855102539 64.17616271972656 52.802833557128906
C 42.34470748901367 69.92872619628906 52.43902587890625
C 39.42129898071289 65.27474212646484 53.456539154052734
C 38.999141693115234 68.329833984375 50.311065673828125
C 45.03328323364258 66.7789077758789 50.95771789550781
C 44.64836502075195 66.9599609375 49.61082077026367
C 42.895992279052734 68.095703125 48.43226623535156
C 40.72146224975586 68.8685073852539 48.988380432128906
C 42.3541145324707 66.76229095458984 54.81190490722656
C 40.418270111083984 67.63626098632812 54.40493392944336
C 42.1115837097168 69.1337890625 48.89958572387695
C 43.6911506652832 68.42868041992188 53.75611877441406
C 40.88143539428711 61.71384811401367 49.761356353759766
N 39.744266510009766 61.44706344604492 49.27920150756836
C 38.8404655456543 62.606693267822266 49.444950103759766
H 37.97806930541992 62.30002975463867 50.04234313964844
H 38.458003997802734 62.88502883911133 48.45960998535156
C 44.12374496459961 58.8507194519043 50.246185302734375
C 43.10635757446289 58.96833419799805 51.23964309692383
H 43.093624114990234 58.26205062866211 52.065818786621094
C 42.14725112915039 59.98575973510742 51.11567306518555
H 41.47260665893555 60.149112701416016 51.952178955078125
C 41.952823638916016 60.78780746459961 49.98417282104492
C 43.93484878540039 59.59415817260742 49.03208923339844
H 44.458980560302734 59.34443283081055 48.11313247680664
C 42.82631301879883 60.50790786743164 48.926212310791016
H 42.597537994384766 61.13551712036133 48.068687438964844
C 45.31767654418945 57.9676628112793 50.37825012207031
C 45.48489761352539 57.0986213684082 51.584190368652344
C 45.49589920043945 57.37553787231445 52.95427703857422
H 45.42289352416992 58.34059524536133 53.44474411010742
C 45.4502067565918 56.12312698364258 53.57500076293945
H 45.52204513549805 55.9271354675293 54.639732360839844
C 45.634342193603516 55.131046295166016 52.66567611694336
N 45.7350959777832 55.716182708740234 51.470096588134766
H 45.94350814819336 55.32588577270508 50.56105422973633
C 45.85109329223633 53.760982513427734 52.90699768066406
H 45.414485931396484 53.29233169555664 53.787715911865234
C 46.151302337646484 52.9377326965332 51.87196731567383
C 45.37851333618164 51.79001998901367 51.56235122680664
H 44.502925872802734 51.36722946166992 52.04383087158203
C 45.95058822631836 51.310359954833984 50.4698371887207
H 45.66782760620117 50.549198150634766 49.750186920166016
C 47.10487747192383 52.069400787353516 50.11355209350586
N 47.21401596069336 53.05228042602539 51.02248764038086
C 47.965274810791016 51.946163177490234 48.9211540222168
C 48.52633285522461 53.01752853393555 48.179073333740234
C 49.80343246459961 53.043277740478516 47.530006408691406
H 50.512516021728516 52.22409439086914 47.4720458984375
C 50.07304763793945 54.3276252746582 47.201019287109375
H 50.99516677856445 54.645572662353516 46.72580337524414
C 48.98405075073242 55.13740158081055 47.45334243774414
N 48.10691452026367 54.26797866821289 48.02057647705078
H 47.21901321411133 54.69291305541992 48.25118637084961
C 48.8460807800293 56.47359848022461 47.367279052734375
H 49.72304916381836 56.8273811340332 46.827186584472656
C 47.8138313293457 57.34769058227539 47.97719192504883
C 47.79452133178711 58.7767219543457 47.96255874633789
H 48.50346755981445 59.3287467956543 47.354373931884766
C 46.78947830200195 59.145503997802734 48.80146408081055
H 46.66018295288086 60.18063735961914 49.099788665771484
C 46.24807357788086 57.948795318603516 49.33176803588867
N 46.84030532836914 56.92164993286133 48.76948165893555
C 48.6257438659668 47.9013786315918 47.254093170166016
C 48.804141998291016 49.03519058227539 46.475582122802734
H 49.19304275512695 48.91530227661133 45.46763610839844
C 48.62495040893555 50.37711715698242 47.01627731323242
H 48.638484954833984 51.1525764465332 46.25466537475586
C 48.24184799194336 50.4997444152832 48.35866165161133
C 48.16618728637695 48.11604690551758 48.55452346801758
H 47.9192008972168 47.226985931396484 49.129112243652344
C 48.01603317260742 49.37936782836914 49.11542510986328
H 47.62705612182617 49.43717575073242 50.1287956237793
N 48.874996185302734 46.60049819946289 46.71019744873047
H 49.1482048034668 45.82034683227539 47.288822174072266
C 48.513668060302734 46.27912521362305 45.415061950683594
O 47.85933303833008 47.064632415771484 44.74768829345703
C 48.817745208740234 44.85944747924805 44.877899169921875
C 49.4549446105957 43.9161262512207 45.64713668823242
H 49.72696304321289 44.10039138793945 46.683292388916016
C 49.79023361206055 42.67482376098633 45.060028076171875
C 49.4272346496582 42.33771896362305 43.761810302734375
H 49.61069107055664 41.31802749633789 43.432960510253906
C 48.68645095825195 43.275325775146484 43.04350662231445
H 48.32955551147461 42.99130630493164 42.05683135986328
C 48.335391998291016 44.49858474731445 43.614192962646484
H 47.769832611083984 45.19853591918945 43.00446319580078
C 50.605159759521484 41.76719284057617 45.8986701965332
H 50.88173294067383 42.27553176879883 46.8211784362793
C 51.13447189331055 40.55898666381836 45.6851692199707
H 50.89785385131836 40.15835189819336 44.70057678222656
C 52.11088943481445 39.728816986083984 46.38912582397461
C 52.70083999633789 40.319576263427734 47.69192886352539
H 52.79506301879883 39.53212356567383 48.442588806152344
H 52.033931732177734 41.0037727355957 48.220672607421875
H 53.609554290771484 40.9036979675293 47.53219223022461
C 52.500247955322266 38.54420852661133 45.91901779174805
H 52.0070686340332 38.19254684448242 45.014015197753906
C 53.52853012084961 37.65511703491211 46.54768753051758
H 54.19931411743164 38.03671646118164 47.316036224365234
C 53.7525749206543 36.36349868774414 46.11335754394531
H 53.01801681518555 35.97257614135742 45.41084289550781
C 54.84238815307617 35.454288482666016 46.56006622314453
C 55.865108489990234 35.93423843383789 47.454036712646484
H 55.593990325927734 35.737918853759766 48.49346923828125
H 56.7692985534668 35.3267936706543 47.37709045410156
H 56.13613510131836 36.98872756958008 47.37005615234375
C 54.74152755737305 34.16360092163086 46.17960739135742
H 53.98318099975586 33.94749069213867 45.42851638793945
C 55.54055404663086 32.94789505004883 46.58353042602539
H 56.34757614135742 33.14058303833008 47.288875579833984
C 55.13479995727539 31.749921798706055 46.17724609375
H 54.311649322509766 31.7404842376709 45.464324951171875
C 55.512149810791016 30.415586471557617 46.60304260253906
H 56.13190841674805 30.417287826538086 47.49848556518555
C 55.3934440612793 29.18775749206543 46.03416061401367
C 54.62002182006836 29.053983688354492 44.666324615478516
H 54.19034194946289 30.02179527282715 44.39954376220703
H 55.3952751159668 28.774709701538086 43.94976806640625
H 53.86417007446289 28.26588249206543 44.67304611206055
C 56.074588775634766 27.97547721862793 46.51152038574219
H 56.84367752075195 28.048063278198242 47.27908706665039
C 55.870296478271484 26.7447566986084 46.02513122558594
H 55.20698165893555 26.64545249938965 45.167179107666016
C 56.62234878540039 25.5180721282959 46.470035552978516
H 57.0346565246582 25.520421981811523 47.477962493896484
C 56.74265670776367 24.34480857849121 45.81389617919922
C 56.10709762573242 24.207311630249023 44.476234436035156
H 56.581729888916016 23.430356979370117 43.87331008911133
H 55.06850051879883 23.875783920288086 44.53841018676758
H 56.14187240600586 25.133024215698242 43.89804458618164
C 57.47389602661133 23.174795150756836 46.33506774902344
H 57.28409194946289 22.204687118530273 45.87813186645508
C 58.68699264526367 23.316579818725586 46.8822135925293
H 59.0168342590332 24.33284568786621 47.09279251098633
C 59.69540023803711 22.28456687927246 47.02187728881836
C 59.40407180786133 21.083463668823242 47.512176513671875
C 58.03937911987305 20.562788009643555 47.849063873291016
H 57.98627853393555 19.7233943939209 48.545528411865234
H 57.3660774230957 21.31378746032715 48.26755905151367
H 57.445987701416016 20.3067684173584 46.96883010864258
C 60.45790481567383 19.991315841674805 47.783714294433594
H 60.26004409790039 19.264890670776367 46.99275207519531
H 60.20901870727539 19.48891258239746 48.72079849243164
C 61.87147903442383 20.661619186401367 47.74960708618164
H 62.634151458740234 19.889402389526367 47.62925338745117
H 61.97566604614258 21.18282127380371 48.703521728515625
C 62.0694465637207 21.529325485229492 46.473758697509766
H 63.10409927368164 21.871122360229492 46.402061462402344
H 61.8266487121582 20.88703727722168 45.62465286254883
C 61.126949310302734 22.700735092163086 46.48958206176758
C 61.76008224487305 23.80597496032715 47.382015228271484
H 61.82857131958008 23.524999618530273 48.43501663208008
H 62.71597671508789 24.120107650756836 46.95769119262695
H 61.18342971801758 24.731420516967773 47.32289505004883
C 61.022342681884766 23.242582321166992 45.06486892700195
H 60.17105484008789 23.926252365112305 45.08401107788086
H 61.91359329223633 23.824827194213867 44.82170104980469
H 60.83614730834961 22.508466720581055 44.27817916870117
