207
Triad, Carotenoid-Porphyrin-C60
C 47.02395248413086 40.14142608642578 64.41114807128906
C 52.07460403442383 44.01615524291992 64.37416076660156
C 49.92899703979492 44.59252166748047 64.5567626953125
C 47.88515090942383 43.578609466552734 65.1715087890625
C 53.70664978027344 42.1617546081543 64.61217498779297
C 53.07600402832031 43.148189544677734 63.83738327026367
C 52.35072326660156 42.95381546020508 66.55315399169922
C 49.64968490600586 43.66200637817383 66.7586898803711
C 47.83063888549805 39.743629455566406 66.43033599853516
C 53.290283203125 42.05570983886719 65.97787475585938
C 46.85962677001953 41.29093551635742 65.1275863647461
C 52.72029113769531 38.82441711425781 63.87192153930664
C 53.685115814208984 40.99058151245117 63.889400482177734
C 50.70690155029297 37.70512008666992 64.4697265625
C 49.87962341308594 38.42972946166992 66.62004852294922
C 49.63115310668945 37.89399719238281 65.3730239868164
C 53.14284896850586 39.699241638183594 65.86316680908203
C 51.58912658691406 42.357444763183594 67.54304504394531
C 50.21038818359375 42.66809844970703 67.58680725097656
C 49.699951171875 40.318294525146484 67.77705383300781
C 49.4645881652832 42.41448974609375 60.938621520996094
C 50.91756820678711 41.936424255371094 61.10810470581055
C 49.371246337890625 43.54417037963867 62.00038528442383
C 50.69398880004883 43.79920959472656 62.43436050415039
C 48.84762191772461 38.38996887207031 63.31792068481445
C 51.33189010620117 40.6051025390625 61.18748092651367
C 47.11247634887695 42.54998779296875 64.57096099853516
C 52.2779426574707 39.06076431274414 62.58586883544922
C 53.17862319946289 41.2318115234375 62.59507369995117
C 50.21553039550781 37.98816680908203 63.18992614746094
C 48.350711822509766 43.68393325805664 62.92119216918945
C 52.227840423583984 38.666526794433594 65.98177337646484
C 51.1651611328125 38.77537536621094 66.9223861694336
C 49.28763198852539 41.65858840942383 67.78760528564453
C 51.99831008911133 41.00111770629883 67.5435562133789
C 48.435768127441406 41.30043029785156 61.15096664428711
C 48.986942291259766 39.93086242675781 61.46010208129883
C 47.506263732910156 41.46914291381836 62.42580032348633
C 48.22935485839844 39.30536651611328 62.48031997680664
C 48.98427200317383 39.36939239501953 67.11869812011719
C 51.61093521118164 42.84190368652344 61.86468505859375
C 47.42555618286133 42.62442398071289 63.19015884399414
C 47.35592269897461 40.23030090332031 63.019920349121094
C 48.61281204223633 44.22338104248047 64.19503021240234
C 48.50489044189453 38.25163650512695 64.68006896972656
C 50.382503509521484 39.621116638183594 61.373016357421875
C 52.45043182373047 40.26498794555664 61.93065643310547
C 50.92800521850586 44.34168243408203 63.666866302490234
C 52.7523307800293 42.54841232299805 62.64322280883789
C 51.0379638671875 39.93870162963867 67.69540405273438
C 51.01982116699219 38.64775466918945 62.220157623291016
C 47.63014602661133 39.2022819519043 65.20465850830078
C 51.79681396484375 43.96131134033203 65.72146606445312
C 50.49245071411133 44.38458251953125 65.83438110351562
C 48.35383224487305 43.35267639160156 66.47444152832031
C 47.415645599365234 41.07891845703125 66.4325942993164
C 53.468467712402344 39.76237487792969 64.50076293945312
C 51.98007583618164 38.10814666748047 64.76185607910156
C 48.18994903564453 42.06336975097656 67.07964324951172
C 53.08436965942383 40.88753128051758 66.65935516357422
C 49.15907287597656 42.8768196105957 59.547264099121094
N 48.10282516479492 42.39206314086914 59.04138946533203
C 47.52342987060547 41.312564849853516 59.904090881347656
H 47.53354263305664 40.35195541381836 59.38276672363281
H 46.498538970947266 41.64698791503906 60.0841064453125
C 51.02686309814453 46.49474334716797 57.96730041503906
C 51.69879150390625 45.24187088012695 57.917118072509766
H 52.66921615600586 45.134033203125 57.439388275146484
C 51.10975646972656 44.0589485168457 58.410484313964844
H 51.69134521484375 43.14408493041992 58.490142822265625
C 49.8409423828125 44.06825637817383 58.97063446044922
C 49.729244232177734 46.44132995605469 58.51612091064453
H 49.079078674316406 47.30390930175781 58.394439697265625
C 49.15298843383789 45.294281005859375 59.0212516784668
H 48.12131118774414 45.306034088134766 59.363407135009766
C 51.600093841552734 47.78003692626953 57.47464370727539
C 52.927635192871094 47.67534637451172 56.91375732421875
C 54.1011848449707 47.17365264892578 57.406620025634766
H 54.14326095581055 46.721004486083984 58.39179611206055
C 55.205814361572266 47.49995803833008 56.58467483520508
H 56.20762634277344 47.18374252319336 56.85597610473633
C 54.70573043823242 48.23477554321289 55.54172897338867
N 53.32455062866211 48.36726760864258 55.78218460083008
H 52.69009017944336 48.84136199951172 55.15384292602539
C 55.316036224365234 48.9561882019043 54.47731399536133
H 56.33076095581055 48.6357536315918 54.2458381652832
C 54.7458610534668 49.88364791870117 53.58190155029297
C 55.00880432128906 49.71870040893555 52.2067756652832
H 55.538421630859375 48.905723571777344 51.72118377685547
C 54.41446304321289 50.76278305053711 51.60055160522461
H 54.28413772583008 50.85599899291992 50.52744674682617
C 53.6947021484375 51.5016975402832 52.61738204956055
N 53.963470458984375 50.96574020385742 53.794036865234375
C 52.63753128051758 52.53512191772461 52.47555923461914
C 51.74619674682617 52.84312057495117 53.463218688964844
C 51.27223587036133 54.176612854003906 53.793704986572266
H 51.54450607299805 55.028076171875 53.178802490234375
C 50.7056770324707 54.109291076660156 55.02081298828125
H 50.2981071472168 54.96487045288086 55.549110412597656
C 50.770877838134766 52.755645751953125 55.576744079589844
N 51.37857437133789 52.074337005615234 54.53041076660156
H 51.71405792236328 51.125450134277344 54.62623596191406
C 50.39516067504883 52.28992462158203 56.80643844604492
H 49.95564270019531 53.06864929199219 57.42799758911133
C 50.48179626464844 51.02149200439453 57.46179962158203
C 50.23221206665039 50.67294692993164 58.86476135253906
H 50.068115234375 51.48285675048828 59.5678596496582
C 50.63435363769531 49.343360900878906 58.96034240722656
H 50.58332061767578 48.73320007324219 59.8560676574707
C 50.93613815307617 48.92344284057617 57.62340545654297
N 50.868751525878906 49.94239044189453 56.76118850708008
C 52.576568603515625 55.12853240966797 48.93098449707031
C 51.456146240234375 54.93720245361328 49.70481872558594
H 50.595237731933594 55.566322326660156 49.493595123291016
C 51.49324035644531 54.135887145996094 50.812255859375
H 50.60190200805664 54.0727424621582 51.431209564208984
C 52.58958053588867 53.366416931152344 51.232845306396484
C 53.69703674316406 54.34894561767578 49.23100280761719
H 54.55076217651367 54.51186752319336 48.57817840576172
C 53.699520111083984 53.4971809387207 50.34038543701172
H 54.62842559814453 53.02269744873047 50.64627456665039
N 52.56187057495117 55.809356689453125 47.67717361450195
H 53.30583953857422 55.51411819458008 47.06282424926758
C 51.53699493408203 56.505409240722656 47.07632827758789
O 50.408599853515625 56.626033782958984 47.45832443237305
C 51.7406005859375 57.070472717285156 45.70169448852539
C 50.75288772583008 56.81150817871094 44.74513626098633
H 49.82835388183594 56.29115676879883 44.98185729980469
C 50.87751770019531 57.430198669433594 43.4788818359375
C 51.998348236083984 58.210548400878906 43.21769714355469
H 52.19965362548828 58.43206787109375 42.17272186279297
C 53.05735778808594 58.34404754638672 44.17269515991211
H 53.93925857543945 58.92529296875 43.91583251953125
C 52.878440856933594 57.82341384887695 45.421897888183594
H 53.629703521728516 58.013370513916016 46.1841926574707
C 49.804115295410156 57.13898468017578 42.536094665527344
H 49.057891845703125 56.53068923950195 43.04505920410156
C 49.630523681640625 57.41017150878906 41.244869232177734
H 50.377689361572266 57.965633392333984 40.67995071411133
C 48.59404373168945 56.95508575439453 40.39069747924805
C 47.32333755493164 56.31779479980469 41.008628845214844
H 47.212440490722656 56.658111572265625 42.04029846191406
H 47.23391342163086 55.23012924194336 40.97053909301758
H 46.375160217285156 56.678646087646484 40.60463333129883
C 48.566688537597656 57.104347229003906 39.02509307861328
H 49.42454147338867 57.57798767089844 38.55002975463867
C 47.54873275756836 56.59219741821289 38.107601165771484
H 46.58226776123047 56.2266731262207 38.45149612426758
C 47.578739166259766 56.48952865600586 36.78508377075195
H 48.43107604980469 56.91855239868164 36.260311126708984
C 46.59059143066406 55.886070251464844 35.90177917480469
C 45.232505798339844 56.128753662109375 36.36360168457031
H 44.431217193603516 56.219154357910156 35.62723922729492
H 44.932403564453125 55.433895111083984 37.15074157714844
H 45.165428161621094 57.15005111694336 36.74428176879883
C 46.79422378540039 55.53904342651367 34.63093566894531
H 47.84623718261719 55.64664077758789 34.370906829833984
C 45.87424850463867 55.15018081665039 33.59958267211914
H 44.89293670654297 54.830631256103516 33.94719314575195
C 46.243202209472656 55.051414489746094 32.31863784790039
H 47.260894775390625 55.312461853027344 32.03215026855469
C 45.408939361572266 54.490081787109375 31.246341705322266
H 44.35361862182617 54.31839370727539 31.45308494567871
C 45.76042175292969 54.14405059814453 29.991924285888672
C 47.16586685180664 54.49300765991211 29.372379302978516
H 47.04286575317383 55.02728271484375 28.427980422973633
H 47.7221565246582 55.154388427734375 30.039899826049805
H 47.85007858276367 53.64314651489258 29.327058792114258
C 44.7627067565918 53.57701110839844 29.044464111328125
H 43.738319396972656 53.67457580566406 29.400894165039062
C 45.03966522216797 52.79811477661133 28.01397132873535
H 46.02289962768555 52.663631439208984 27.5655460357666
C 43.9753532409668 51.99711990356445 27.254291534423828
H 43.13966751098633 51.790863037109375 27.921384811401367
C 43.915958404541016 51.50117492675781 26.0050048828125
C 45.002830505371094 51.82645034790039 25.019641876220703
H 45.3487663269043 52.85734558105469 25.119863510131836
H 45.937740325927734 51.284088134765625 25.175384521484375
H 44.81083679199219 51.45486068725586 24.01091766357422
C 42.847801208496094 50.64279556274414 25.43254852294922
H 42.950504302978516 50.41206741333008 24.37323760986328
C 41.79410934448242 50.06812286376953 26.053956985473633
H 41.73033142089844 50.1651496887207 27.136749267578125
C 40.83591079711914 49.1556396484375 25.509435653686523
C 41.09941864013672 47.9614372253418 24.957138061523438
C 42.46135711669922 47.292354583740234 24.930498123168945
H 43.17448043823242 47.86783981323242 25.5244140625
H 42.446590423583984 46.247154235839844 25.24640655517578
H 42.817955017089844 47.21480178833008 23.901281356811523
C 40.15629577636719 46.97323989868164 24.45478630065918
H 40.382137298583984 45.94389724731445 24.740995407104492
H 40.1869010925293 47.137672424316406 23.37567138671875
C 38.69614028930664 47.32194900512695 24.871723175048828
H 38.44853973388672 46.99938201904297 25.88518714904785
H 38.06999206542969 46.602638244628906 24.339757919311523
C 38.421226501464844 48.83530807495117 24.814054489135742
H 38.5057487487793 49.14773178100586 23.771120071411133
H 37.405311584472656 49.14404296875 25.069141387939453
C 39.372154235839844 49.68354797363281 25.60915756225586
C 39.0861930847168 51.12092208862305 25.31184959411621
H 38.05766296386719 51.451560974121094 25.470794677734375
H 39.7442626953125 51.814918518066406 25.838899612426758
H 39.37636184692383 51.393028259277344 24.29488182067871
C 38.909725189208984 49.603511810302734 27.06477928161621
H 39.3550910949707 50.413455963134766 27.646242141723633
H 37.83942794799805 49.767311096191406 27.206554412841797
H 39.14875411987305 48.62443923950195 27.485183715820312
