207
Triad, Carotenoid-Porphyrin-C60
C 52.729000091552734 54.496826171875 31.891233444213867
C 46.99748611450195 52.37834930419922 33.70449447631836
C 47.869911193847656 54.481407165527344 33.96296691894531
C 49.649444580078125 55.78575134277344 32.94816207885742
C 47.20398712158203 50.44024658203125 32.344093322753906
C 47.212677001953125 51.047698974609375 33.600608825683594
C 46.67534255981445 52.496490478515625 31.30401039123535
C 47.85685348510742 55.025848388671875 31.59063720703125
C 51.7406120300293 54.38141632080078 29.871089935302734
C 46.95601272583008 51.16297912597656 31.203025817871094
C 51.75532150268555 55.52201843261719 31.86607551574707
C 50.351993560791016 49.05805969238281 31.256044387817383
C 48.24934005737305 49.55687713623047 32.35200500488281
C 52.19532012939453 50.385581970214844 30.305326461791992
C 51.31189727783203 52.165382385253906 28.9494571685791
C 52.30794143676758 51.61827850341797 29.712520599365234
C 48.680030822753906 50.025482177734375 30.046794891357422
C 47.19698715209961 53.16053009033203 30.1912784576416
C 47.856563568115234 54.38575744628906 30.310487747192383
C 49.60056686401367 53.73377227783203 28.83180046081543
C 51.16377639770508 52.425445556640625 35.81502914428711
C 50.37913131713867 51.14765167236328 35.39781951904297
C 50.01152801513672 53.43750762939453 35.57703399658203
C 48.760135650634766 52.746055603027344 35.38422393798828
C 53.317283630371094 51.785972595214844 31.691452026367188
C 50.94095993041992 50.25340270996094 34.520145416259766
C 50.97858810424805 55.605384826660156 33.02322006225586
C 50.96083450317383 49.14421081542969 32.499473571777344
C 48.842796325683594 49.59246826171875 33.59017562866211
C 52.809871673583984 50.502296447753906 31.54891586303711
C 50.14528274536133 54.63734436035156 34.88469314575195
C 49.894996643066406 50.29969787597656 29.42579460144043
C 50.10063552856445 51.53076171875 28.78567886352539
C 49.01651382446289 54.72639465332031 29.663557052612305
C 47.829917907714844 52.183326721191406 29.37371063232422
C 52.47073745727539 52.722389221191406 35.06490707397461
C 52.89900207519531 51.7252197265625 34.04308319091797
C 52.40133285522461 54.03166961669922 34.218353271484375
C 53.34596633911133 52.43658447265625 32.92414855957031
C 50.95045471191406 53.537696838378906 29.022645950317383
C 48.98539352416992 51.35576629638672 35.25855255126953
C 51.34109878540039 54.939483642578125 34.204078674316406
C 53.06087112426758 53.777854919433594 33.04499816894531
C 49.08468246459961 55.13645935058594 34.06710433959961
C 53.059566497802734 52.486297607421875 30.545927047729492
C 52.1700439453125 50.51769256591797 33.865360260009766
C 50.188602447509766 49.44635772705078 33.709869384765625
C 47.737884521484375 53.23939514160156 34.52294158935547
C 48.228050231933594 50.55706787109375 34.379093170166016
C 49.029685974121094 52.48637390136719 28.753110885620117
C 52.203147888183594 49.834999084472656 32.61859893798828
C 52.76172637939453 53.828826904296875 30.6147518157959
C 46.677154541015625 53.11023712158203 32.56308364868164
C 47.25502014160156 54.39929962158203 32.6826286315918
C 49.03064727783203 55.712158203125 31.690425872802734
C 51.19358825683594 55.37232971191406 30.61249542236328
C 48.99168395996094 49.27745056152344 31.160907745361328
C 50.97736740112305 49.688865661621094 30.135412216186523
C 49.76713180541992 55.52264404296875 30.514589309692383
C 47.59373092651367 50.922142028808594 29.983675003051758
C 51.567283630371094 52.32427978515625 37.29023742675781
N 52.80548858642578 52.428489685058594 37.48936080932617
C 53.52568817138672 52.796295166015625 36.18220901489258
H 54.24879455566406 52.00933074951172 35.953155517578125
H 54.06880569458008 53.74480438232422 36.181800842285156
C 48.73583221435547 51.29772186279297 40.377403259277344
C 49.62436294555664 50.35908508300781 39.80856704711914
H 49.531185150146484 49.337493896484375 40.168067932128906
C 50.5964241027832 50.711090087890625 38.92764663696289
H 51.369606018066406 50.01960754394531 38.60265350341797
C 50.62837219238281 51.9891357421875 38.327823638916016
C 48.90031051635742 52.62562561035156 39.881935119628906
H 48.2087287902832 53.434852600097656 40.102020263671875
C 49.77334213256836 52.92754364013672 38.85034942626953
H 49.81834030151367 53.92603302001953 38.423057556152344
C 47.76724624633789 50.93559265136719 41.44770431518555
C 47.67961502075195 49.50617218017578 41.85538101196289
C 47.3168830871582 48.47276306152344 41.05168533325195
H 47.07164764404297 48.58317565917969 40.000545501708984
C 46.93867111206055 47.32318115234375 41.77304458618164
H 46.4592399597168 46.42174530029297 41.40591812133789
C 47.38319396972656 47.63801574707031 43.061920166015625
N 47.7548828125 48.966514587402344 43.09419631958008
H 47.964839935302734 49.432945251464844 43.96625518798828
C 47.303707122802734 46.73101043701172 44.25957107543945
H 47.12759780883789 45.67759704589844 44.046905517578125
C 47.45749282836914 47.179351806640625 45.540802001953125
C 47.60398483276367 46.32701873779297 46.65554428100586
H 47.669349670410156 45.24458312988281 46.61966323852539
C 47.69036102294922 47.162498474121094 47.73164367675781
H 47.68423080444336 46.851722717285156 48.77116775512695
C 47.68006134033203 48.51118469238281 47.23500442504883
N 47.43552017211914 48.54499053955078 45.897674560546875
C 47.6333122253418 49.773773193359375 47.98250198364258
C 46.75788116455078 50.81011962890625 47.621376037597656
C 45.92575454711914 51.70489501953125 48.38499069213867
H 45.76079177856445 51.60223388671875 49.45245361328125
C 45.32347869873047 52.5855712890625 47.520843505859375
H 44.65946960449219 53.41737365722656 47.73161315917969
C 45.84355545043945 52.42548370361328 46.200782775878906
N 46.604740142822266 51.30286407470703 46.357887268066406
H 46.971736907958984 50.820899963378906 45.54847717285156
C 45.584632873535156 53.15385437011719 45.080101013183594
H 44.86649703979492 53.969200134277344 45.15376663208008
C 46.072837829589844 52.91288757324219 43.79316329956055
C 45.68107604980469 53.60840606689453 42.657676696777344
H 44.983802795410156 54.43830871582031 42.60972595214844
C 46.313140869140625 52.871498107910156 41.61323928833008
H 46.10605239868164 53.10685729980469 40.57451248168945
C 47.079288482666016 51.87574005126953 42.14714813232422
N 46.848228454589844 51.87664794921875 43.45111083984375
C 50.486045837402344 50.49211883544922 51.17245101928711
C 49.63370132446289 51.53600311279297 50.810550689697266
H 49.71805953979492 52.46885681152344 51.36212921142578
C 48.79027557373047 51.31834411621094 49.7473258972168
H 48.086647033691406 52.05680847167969 49.37163543701172
C 48.65716552734375 50.048500061035156 49.06298828125
C 50.529075622558594 49.32136535644531 50.48830032348633
H 51.37213897705078 48.669044494628906 50.70112228393555
C 49.56235885620117 49.09272766113281 49.49451446533203
H 49.64317321777344 48.151817321777344 48.95625305175781
N 51.49644470214844 50.818389892578125 52.14358901977539
H 51.828704833984375 51.77111053466797 52.14421081542969
C 51.86540222167969 50.023048400878906 53.12051010131836
O 51.37229919433594 48.919403076171875 53.25765609741211
C 52.87337112426758 50.69598388671875 54.046905517578125
C 52.80848693847656 50.57579803466797 55.431270599365234
H 52.09214782714844 49.849822998046875 55.80729675292969
C 53.68446350097656 51.20159149169922 56.292118072509766
C 54.67713928222656 51.911155700683594 55.77524948120117
H 55.375938415527344 52.31871795654297 56.50129318237305
C 54.82919692993164 52.14148712158203 54.434329986572266
H 55.68861770629883 52.69342041015625 54.06239318847656
C 53.929718017578125 51.433998107910156 53.621028900146484
H 54.043243408203125 51.472694396972656 52.54066467285156
C 53.59386444091797 50.90544891357422 57.741790771484375
H 52.85441970825195 50.120880126953125 57.89544677734375
C 54.26705551147461 51.433570861816406 58.7893180847168
H 55.05072784423828 52.13075256347656 58.496551513671875
C 54.29582595825195 50.97605895996094 60.11017990112305
C 55.478675842285156 51.31292724609375 60.942222595214844
H 55.87681579589844 50.42143249511719 61.431278228759766
H 55.17229080200195 52.032745361328125 61.7041015625
H 56.286956787109375 51.714324951171875 60.32738494873047
C 53.28438186645508 50.27819061279297 60.60587692260742
H 52.39826583862305 50.32025146484375 59.9742546081543
C 53.10187530517578 49.748443603515625 61.962589263916016
H 53.99937438964844 49.720909118652344 62.57875061035156
C 51.943355560302734 49.08168029785156 62.21277618408203
H 51.15288162231445 49.1798095703125 61.47018051147461
C 51.54637145996094 48.213348388671875 63.32328414916992
C 52.66408157348633 47.606651306152344 64.03912353515625
H 52.36842727661133 47.9195556640625 65.04268646240234
H 52.50406265258789 46.52643585205078 64.0366439819336
H 53.666259765625 47.92827606201172 63.748165130615234
C 50.27238082885742 47.869163513183594 63.56816864013672
H 49.587711334228516 48.178871154785156 62.77998733520508
C 49.73517608642578 46.917999267578125 64.5524673461914
H 50.46711730957031 46.207008361816406 64.93282318115234
C 48.43042755126953 46.72907257080078 64.63599395751953
H 47.823482513427734 47.31333923339844 63.94594192504883
C 47.73570251464844 45.66155242919922 65.4432144165039
H 48.46160888671875 44.89404296875 65.70763397216797
C 46.416934967041016 45.55908966064453 65.59322357177734
C 45.47694778442383 46.582366943359375 65.00128936767578
H 45.8587646484375 47.604583740234375 64.95941162109375
H 45.223087310791016 46.344078063964844 63.96628189086914
H 44.551666259765625 46.76123046875 65.55294036865234
C 45.644012451171875 44.45708465576172 66.11151123046875
H 44.594322204589844 44.43695831298828 65.82225799560547
C 46.12333297729492 43.42970275878906 66.85124206542969
H 47.18806838989258 43.35083770751953 67.0658187866211
C 45.223323822021484 42.319061279296875 67.23908996582031
H 44.186859130859375 42.346473693847656 66.90604400634766
C 45.560386657714844 41.355533599853516 68.03659057617188
C 46.839988708496094 41.378055572509766 68.8737564086914
H 47.65797424316406 41.01630783081055 68.24726104736328
H 46.9788818359375 42.41242599487305 69.19507598876953
H 46.8355712890625 40.709407806396484 69.73709869384766
C 44.79233932495117 40.142539978027344 68.2120132446289
H 44.90163040161133 39.71650695800781 69.20823669433594
C 43.97471618652344 39.504547119140625 67.33782196044922
H 43.74233627319336 39.9315185546875 66.36334228515625
C 42.92723083496094 38.52901840209961 67.62007141113281
C 41.97297286987305 38.74477005004883 68.60201263427734
C 41.76215744018555 40.03504180908203 69.37287139892578
H 41.13945007324219 40.76173782348633 68.8469467163086
H 41.364871978759766 39.77712631225586 70.35679626464844
H 42.73237228393555 40.52938461303711 69.45515441894531
C 40.91093826293945 37.79105758666992 69.02155303955078
H 39.9559211730957 38.06393814086914 68.56773376464844
H 40.76713180541992 37.823463439941406 70.10356140136719
C 41.21741485595703 36.35607147216797 68.65828704833984
H 40.29884719848633 35.771385192871094 68.74100494384766
H 41.98080062866211 35.86064910888672 69.26183319091797
C 41.67948913574219 36.38796615600586 67.19538879394531
H 41.84685134887695 35.409427642822266 66.74050903320312
H 40.82875442504883 36.86522674560547 66.70454406738281
C 42.911991119384766 37.23684310913086 66.80628967285156
C 44.16814041137695 36.339134216308594 66.98966979980469
H 44.373382568359375 36.23039245605469 68.05668640136719
H 44.076847076416016 35.35948944091797 66.51593780517578
H 45.06667709350586 36.85714340209961 66.64795684814453
C 42.77287292480469 37.39505386352539 65.26021575927734
H 42.830875396728516 36.42449188232422 64.76311492919922
H 41.90315628051758 37.99322509765625 64.98048400878906
H 43.62398910522461 37.99403381347656 64.92962646484375
