207
Triad, Carotenoid-Porphyrin-C60
C 44.79110336303711 41.99220275878906 67.20690155029297
C 44.20476531982422 48.47172164916992 66.35982513427734
C 42.75767517089844 46.77346420288086 66.06539916992188
C 42.35767364501953 44.56612777709961 66.70855712890625
C 46.23915100097656 48.75877380371094 67.55689239501953
C 45.578311920166016 48.74465560913086 66.33969116210938
C 44.21342086791992 48.30255889892578 68.79938507080078
C 42.41316604614258 46.260406494140625 68.38121032714844
C 44.71846389770508 42.64673614501953 69.36112213134766
C 45.6400260925293 48.59914016723633 68.77721405029297
C 43.573612213134766 42.5518798828125 67.38461303710938
C 48.73689651489258 46.23245620727539 67.96707916259766
C 47.51885223388672 48.22529983520508 67.31934356689453
C 48.466617584228516 43.980224609375 68.64114379882812
C 46.580379486083984 43.86574935913086 70.22461700439453
C 47.466400146484375 43.29756164550781 69.29861450195312
C 47.40943908691406 47.22174072265625 69.49800109863281
C 43.98451232910156 47.329795837402344 69.78927612304688
C 43.02495574951172 46.28440475463867 69.65351104736328
C 44.5001335144043 44.68608856201172 70.64936828613281
C 45.537410736083984 45.152896881103516 63.50638198852539
C 46.49415969848633 46.1597900390625 64.0148696899414
C 44.25566482543945 45.69428253173828 64.02456665039062
C 44.528785705566406 47.03306198120117 64.5332260131836
C 47.548095703125 42.5715217590332 67.11811828613281
C 47.651123046875 45.83864974975586 64.70623016357422
C 43.0482063293457 43.40059280395508 66.41285705566406
C 48.814090728759766 45.83125686645508 66.65855407714844
C 47.56914520263672 47.77460479736328 66.0018081665039
C 48.47544860839844 43.58321762084961 67.27920532226562
C 43.295127868652344 44.91282272338867 64.69988250732422
C 47.64460754394531 45.934791564941406 69.9548110961914
C 46.70590591430664 45.186805725097656 70.5562744140625
C 43.30691909790039 44.982295989990234 70.028076171875
C 45.20260238647461 47.06458282470703 70.37940979003906
C 45.81047439575195 43.613014221191406 63.93488693237305
C 47.04066848754883 43.42715072631836 64.87130737304688
C 44.82297897338867 42.92748260498047 64.90802764892578
C 46.77884292602539 42.49628448486328 65.90314483642578
C 45.221378326416016 43.53213882446289 70.33552551269531
C 45.86260986328125 47.3013801574707 64.46460723876953
C 43.57904052734375 43.59196853637695 65.13529968261719
C 45.440834045410156 42.20685577392578 65.95731353759766
C 42.501197814941406 45.46704864501953 65.69171905517578
C 46.896419525146484 42.343666076660156 68.36981964111328
C 47.8941764831543 44.48338317871094 65.09432220458984
C 48.20614242553711 46.62004470825195 65.69252014160156
C 43.658939361572266 47.597007751464844 65.45220947265625
C 46.38496780395508 48.1407585144043 65.42645263671875
C 45.43911361694336 45.73993682861328 70.78253936767578
C 48.653865814208984 44.480342864990234 66.24508666992188
C 45.4978141784668 42.068485260009766 68.3866958618164
C 43.604488372802734 48.25355911254883 67.55699920654297
C 42.70827865600586 47.21945571899414 67.39602661132812
C 42.228389739990234 44.89533233642578 68.0431900024414
C 43.493446350097656 42.959537506103516 68.7156753540039
C 48.06333923339844 47.43225860595703 68.29658508300781
C 48.47190856933594 45.33652877807617 69.0042724609375
C 42.783260345458984 44.114837646484375 69.05937957763672
C 46.16057205200195 47.81746292114258 69.74317169189453
C 45.686248779296875 45.099910736083984 61.9503059387207
N 45.783443450927734 43.88665771484375 61.5279655456543
C 45.77947998046875 42.843997955322266 62.5379753112793
H 46.73479461669922 42.32540512084961 62.423526763916016
H 45.014835357666016 42.11502456665039 62.2576789855957
C 45.26955032348633 48.4249153137207 59.07658004760742
C 46.2457160949707 48.480587005615234 60.1461067199707
H 46.824642181396484 49.39783477783203 60.21731948852539
C 46.3674430847168 47.424076080322266 61.13825607299805
H 47.019920349121094 47.46282196044922 62.00678634643555
C 45.56060791015625 46.27436447143555 61.040042877197266
C 44.612403869628906 47.17237091064453 58.9178581237793
H 43.97294998168945 46.961158752441406 58.06459426879883
C 44.71321105957031 46.17731475830078 59.97099685668945
H 44.167724609375 45.251136779785156 59.809085845947266
C 45.10380172729492 49.56177520751953 58.1053581237793
C 46.02035903930664 50.69773483276367 58.21529769897461
C 46.21517562866211 51.58505630493164 59.24447250366211
H 45.60664749145508 51.602317810058594 60.14259719848633
C 46.985774993896484 52.63478088378906 58.62874221801758
H 47.19483947753906 53.6126594543457 59.04977798461914
C 47.40755844116211 52.2138671875 57.4473762512207
N 46.79747009277344 51.04338455200195 57.18008804321289
H 46.743247985839844 50.57435989379883 56.28610610961914
C 48.23090744018555 52.870391845703125 56.48886489868164
H 49.10065841674805 53.29380416870117 56.98904037475586
C 48.20782470703125 52.68483352661133 55.107669830322266
C 49.38652801513672 52.548828125 54.28592300415039
H 50.42266082763672 52.559600830078125 54.60769271850586
C 48.98199462890625 52.09373474121094 53.09421920776367
H 49.58662033081055 51.78330993652344 52.248470306396484
C 47.54942321777344 52.10007095336914 53.08541488647461
N 47.04789733886719 52.452823638916016 54.31534957885742
C 46.65622329711914 51.83436965942383 51.95779037475586
C 45.352561950683594 51.43070602416992 52.0925178527832
C 44.20097351074219 51.7422981262207 51.25397872924805
H 44.17159652709961 52.378639221191406 50.375667572021484
C 43.06269836425781 51.336883544921875 51.92038345336914
H 42.038055419921875 51.63645935058594 51.726497650146484
C 43.405391693115234 50.79396438598633 53.12111282348633
N 44.772216796875 50.82649612426758 53.13872146606445
H 45.21184539794922 50.597957611083984 54.01998519897461
C 42.49407958984375 50.4289665222168 54.12223434448242
H 41.46290969848633 50.592796325683594 53.81276321411133
C 42.79392623901367 49.904727935791016 55.511470794677734
C 41.878990173339844 49.54581832885742 56.52742385864258
H 40.80257797241211 49.68198013305664 56.52267074584961
C 42.667396545410156 49.31203079223633 57.65573501586914
H 42.34726333618164 49.086368560791016 58.66756820678711
C 44.01898193359375 49.476806640625 57.236270904541016
N 44.01365280151367 49.836883544921875 55.96175765991211
C 48.12368392944336 52.63801193237305 47.90147018432617
C 46.98643493652344 51.91223907470703 48.09334945678711
H 46.491722106933594 51.50307846069336 47.216182708740234
C 46.46825408935547 51.61672592163086 49.31715774536133
H 45.719627380371094 50.82863235473633 49.31124496459961
C 47.106910705566406 52.09672927856445 50.49375534057617
C 48.83260726928711 53.10822677612305 49.0090217590332
H 49.689971923828125 53.742984771728516 48.80026626586914
C 48.28258514404297 52.91210174560547 50.26614761352539
H 48.75675964355469 53.53367233276367 51.02138137817383
N 48.616729736328125 53.033416748046875 46.63236618041992
H 48.824745178222656 54.02021789550781 46.60017776489258
C 48.814788818359375 52.285640716552734 45.57963943481445
O 48.63255310058594 51.09136962890625 45.540897369384766
C 49.168514251708984 53.071868896484375 44.350284576416016
C 48.723934173583984 52.58601379394531 43.13870620727539
H 48.340389251708984 51.57687759399414 43.01182174682617
C 48.9478874206543 53.29458236694336 41.97391891479492
C 49.49738311767578 54.61752700805664 42.079952239990234
H 49.72849655151367 55.23108673095703 41.212947845458984
C 50.072105407714844 54.998260498046875 43.311763763427734
H 50.63814926147461 55.925907135009766 43.286556243896484
C 49.933719635009766 54.19486618041992 44.46487045288086
H 50.38079071044922 54.52383804321289 45.39946365356445
C 48.67060089111328 52.69147872924805 40.66371536254883
H 48.2454719543457 51.702945709228516 40.83102035522461
C 48.859169006347656 53.11362075805664 39.402950286865234
H 49.31093978881836 54.09981155395508 39.306785583496094
C 48.613948822021484 52.373165130615234 38.16398239135742
C 47.55525207519531 51.31208419799805 38.06900405883789
H 47.98307800292969 50.375083923339844 37.70642852783203
H 46.80906295776367 51.72257614135742 37.38551330566406
H 47.092010498046875 51.1129264831543 39.03761291503906
C 49.2996940612793 52.74169158935547 36.99979782104492
H 50.08498001098633 53.47385787963867 37.181941986083984
C 49.3928108215332 52.130638122558594 35.6857795715332
H 48.73308563232422 51.30601119995117 35.419925689697266
C 50.34685134887695 52.51180648803711 34.877540588378906
H 50.91520309448242 53.378780364990234 35.211090087890625
C 50.752567291259766 51.842830657958984 33.708133697509766
C 50.11947250366211 50.46414566040039 33.54396057128906
H 49.11691665649414 50.587318420410156 33.129024505615234
H 50.611488342285156 49.86363983154297 32.7759895324707
H 50.249229431152344 49.911861419677734 34.47702407836914
C 51.44692611694336 52.348793029785156 32.70413589477539
H 51.90352249145508 53.33597946166992 32.757999420166016
C 51.76025390625 51.622039794921875 31.42508888244629
H 50.98542404174805 51.172080993652344 30.80613899230957
C 53.0241584777832 51.48318862915039 30.986623764038086
H 53.7137451171875 51.98269271850586 31.66551399230957
C 53.44688415527344 50.932456970214844 29.67879295349121
H 52.714073181152344 50.23712921142578 29.272069931030273
C 54.54298400878906 51.03946304321289 28.955835342407227
C 55.62171936035156 51.94916915893555 29.447744369506836
H 55.21562957763672 52.962425231933594 29.418359756469727
H 55.90275573730469 51.68431091308594 30.46918296813965
H 56.49397277832031 52.016387939453125 28.79420280456543
C 54.756622314453125 50.51985549926758 27.630735397338867
H 55.72015380859375 50.74836730957031 27.177614212036133
C 53.921546936035156 49.8420295715332 26.79518699645996
H 52.88532638549805 49.69477844238281 27.09599494934082
C 54.419883728027344 49.15413284301758 25.602277755737305
H 55.48533630371094 49.22344207763672 25.387990951538086
C 53.75696563720703 48.33417510986328 24.7584171295166
C 52.32645034790039 48.128761291503906 24.804208755493164
H 52.038211822509766 47.12200164794922 24.49466896057129
H 51.77980041503906 48.28670883178711 25.73624610900879
H 51.97626876831055 48.85780715942383 24.07050132751465
C 54.35838317871094 47.701751708984375 23.619508743286133
H 53.72667694091797 47.255027770996094 22.853151321411133
C 55.66040802001953 47.480628967285156 23.574079513549805
H 56.262535095214844 47.55325698852539 24.47856330871582
C 56.36299133300781 46.86243438720703 22.432619094848633
C 55.96989440917969 46.953086853027344 21.13739585876465
C 54.843727111816406 47.74289321899414 20.526933670043945
H 53.822715759277344 47.41879653930664 20.739015579223633
H 54.958290100097656 48.662322998046875 21.1048526763916
H 55.06804656982422 48.06875991821289 19.50911521911621
C 56.640968322753906 46.23786926269531 19.968095779418945
H 57.323394775390625 46.95941162109375 19.514070510864258
H 55.85069274902344 46.007232666015625 19.250642776489258
C 57.55359649658203 45.06508255004883 20.376798629760742
H 58.25611877441406 44.66081237792969 19.6450252532959
H 56.944435119628906 44.210567474365234 20.67877769470215
C 58.36956787109375 45.62449645996094 21.5430965423584
H 59.137725830078125 44.876136779785156 21.748899459838867
H 58.925758361816406 46.51932144165039 21.25602149963379
C 57.594268798828125 45.942291259765625 22.743669509887695
C 57.13267517089844 44.6802864074707 23.419878005981445
H 57.94934844970703 44.04706573486328 23.77277183532715
H 56.389198303222656 44.98323059082031 24.16010093688965
H 56.53926086425781 44.0802116394043 22.726892471313477
C 58.59235382080078 46.50266647338867 23.703702926635742
H 58.93070983886719 47.47422409057617 23.33757209777832
H 58.19428253173828 46.57501983642578 24.717988967895508
H 59.42204284667969 45.7928466796875 23.688966751098633
