207
Triad, Carotenoid-Porphyrin-C60
C 28.51413345336914 45.22469711303711 47.02486801147461
C 32.21342086791992 50.24168014526367 45.12879180908203
C 32.27862548828125 48.12710952758789 44.5900764465332
C 30.909408569335938 46.141727447509766 44.46316146850586
C 30.58211898803711 51.72288131713867 46.11014175415039
C 31.85468292236328 51.07497787475586 46.18030548095703
C 30.170452117919922 50.78470993041992 43.957889556884766
C 30.304731369018555 48.058223724365234 43.2020149230957
C 27.051040649414062 46.26516342163086 45.63794708251953
C 29.747175216674805 51.5621452331543 45.03205108642578
C 29.044109344482422 45.24404525756836 45.70844268798828
C 28.127960205078125 50.9470329284668 48.65790939331055
C 30.032133102416992 51.760379791259766 47.3923454284668
C 26.787233352661133 48.97884750366211 48.50139617919922
C 26.068405151367188 48.37228012084961 46.31882858276367
C 26.318204879760742 48.03603744506836 47.64834976196289
C 27.801546096801758 51.622920989990234 46.45896530151367
C 29.032302856445312 50.10698318481445 43.56781005859375
C 29.07801055908203 48.76182174682617 43.14188766479492
C 27.024709701538086 48.342899322509766 44.22348403930664
C 32.472251892089844 47.22024154663086 48.6644172668457
C 32.127254486083984 48.70659255981445 48.91933822631836
C 32.8126335144043 47.3140983581543 47.18743896484375
C 33.01370620727539 48.66231155395508 46.80009078979492
C 27.668642044067383 46.9841194152832 49.01987075805664
C 30.97883415222168 49.14638137817383 49.602027893066406
C 30.37567901611328 45.41409683227539 45.53526306152344
C 28.975675582885742 50.242794036865234 49.52207565307617
C 30.84326934814453 51.131649017333984 48.265750885009766
C 27.59369468688965 48.333072662353516 49.416080474853516
C 32.28340530395508 46.36204147338867 46.260719299316406
C 26.789915084838867 50.7050666809082 46.80619430541992
C 26.337444305419922 49.6985969543457 45.91484069824219
C 28.12216567993164 47.86423873901367 43.52164077758789
C 27.946653366088867 50.56130599975586 44.26883316040039
C 31.263200759887695 46.30154037475586 49.17633819580078
C 30.017471313476562 46.96640396118164 49.776214599609375
C 30.673795700073242 45.609249114990234 47.963809967041016
C 28.89137077331543 46.35390090942383 49.167301177978516
C 26.481979370117188 47.53630447387695 45.263450622558594
C 32.668922424316406 49.53146743774414 47.885616302490234
C 31.250123977661133 45.58738327026367 46.660186767578125
C 29.29989242553711 45.49293899536133 48.14747619628906
C 32.03944778442383 46.81815719604492 44.93614196777344
C 26.822784423828125 46.79365921020508 47.945068359375
C 29.963476181030273 48.31173324584961 49.98823928833008
C 30.379491806030273 50.35745620727539 49.36854934692383
C 32.840641021728516 49.04378128051758 45.470741271972656
C 32.00370407104492 50.734622955322266 47.57558822631836
C 26.95604705810547 49.67671585083008 44.665836334228516
C 28.734783172607422 48.98397445678711 49.90888977050781
C 27.287235260009766 45.917293548583984 46.930641174316406
C 31.391952514648438 50.10175704956055 44.06214141845703
C 31.47479820251465 48.7786979675293 43.737545013427734
C 30.04995346069336 46.734256744384766 43.52706527709961
C 28.110599517822266 45.791683197021484 44.796852111816406
C 28.638381958007812 51.723201751708984 47.626304626464844
C 26.997718811035156 50.29621505737305 48.10324478149414
C 28.636871337890625 46.58760452270508 43.72038650512695
C 28.37540626525879 51.478084564208984 45.19105911254883
C 33.56195831298828 46.636775970458984 49.541866302490234
N 33.2528190612793 45.77413558959961 50.40510177612305
C 31.760038375854492 45.409976959228516 50.25786209106445
H 31.31050682067871 45.70662307739258 51.208953857421875
H 31.657800674438477 44.346439361572266 50.02745819091797
C 37.68760299682617 47.26498031616211 48.27876281738281
C 36.983238220214844 48.243099212646484 48.94883346557617
H 37.51723861694336 49.16183090209961 49.17762756347656
C 35.60267639160156 48.051639556884766 49.28932571411133
H 35.07994842529297 48.934810638427734 49.64755630493164
C 34.94441223144531 46.806880950927734 49.07634353637695
C 37.0322380065918 46.03835678100586 48.07355499267578
H 37.638179779052734 45.26229476928711 47.61297607421875
C 35.70838928222656 45.76836013793945 48.50535583496094
H 35.31043243408203 44.7746696472168 48.31619644165039
C 39.11202621459961 47.57573318481445 47.7738151550293
C 39.6392936706543 48.83586502075195 47.99858093261719
C 39.144657135009766 50.04074478149414 47.6511116027832
H 38.242698669433594 50.2798957824707 47.09748840332031
C 40.14103698730469 50.987613677978516 47.95787811279297
H 39.92972183227539 52.04997634887695 47.89498519897461
C 41.19377517700195 50.37236404418945 48.529945373535156
N 40.88299560546875 49.09115982055664 48.516265869140625
H 41.43130111694336 48.388980865478516 48.99420166015625
C 42.401939392089844 50.88081741333008 49.090179443359375
H 42.35456466674805 51.94450759887695 49.31874465942383
C 43.527259826660156 50.243350982666016 49.53526306152344
C 44.05217742919922 50.48054885864258 50.83799362182617
H 43.659393310546875 51.16830062866211 51.5795783996582
C 45.05183792114258 49.523189544677734 51.001094818115234
H 45.579856872558594 49.28904342651367 51.91957092285156
C 45.044246673583984 48.7162971496582 49.7236328125
N 44.05203628540039 49.16165542602539 48.95869827270508
C 45.842559814453125 47.5375862121582 49.483890533447266
C 45.39204788208008 46.44374465942383 48.66852569580078
C 46.20746612548828 45.585819244384766 47.793094635009766
H 47.290287017822266 45.617122650146484 47.73192596435547
C 45.38455581665039 44.8695182800293 46.96697235107422
H 45.747371673583984 44.199153900146484 46.194828033447266
C 44.059593200683594 45.30301284790039 47.20769119262695
N 44.11210632324219 46.215518951416016 48.21966552734375
H 43.27004623413086 46.529117584228516 48.683040618896484
C 42.9579963684082 44.95541000366211 46.51028823852539
H 43.13260269165039 44.3158073425293 45.64637756347656
C 41.57062530517578 45.408512115478516 46.56136703491211
C 40.38981628417969 45.04690170288086 45.7783317565918
H 40.47760009765625 44.26726150512695 45.02887725830078
C 39.35297775268555 45.855648040771484 46.11623001098633
H 38.50751876831055 46.1613655090332 45.50880813598633
C 39.825035095214844 46.5728874206543 47.19472122192383
N 41.13391876220703 46.2944450378418 47.44293212890625
C 49.55253601074219 47.064945220947266 51.814762115478516
C 49.001007080078125 46.01166915893555 51.09895324707031
H 49.47040557861328 45.03923416137695 51.22385025024414
C 47.77444839477539 46.09914779663086 50.41361618041992
H 47.30411911010742 45.18962478637695 50.048763275146484
C 47.114341735839844 47.37131118774414 50.26295471191406
C 48.9149055480957 48.32102584838867 51.72526550292969
H 49.419708251953125 49.17390060424805 52.17176055908203
C 47.707557678222656 48.44674301147461 50.988277435302734
H 47.379150390625 49.47336959838867 50.847721099853516
N 50.74873352050781 46.94906234741211 52.54749298095703
H 50.815879821777344 47.57358932495117 53.337135314941406
C 51.85773849487305 46.24714279174805 52.13169860839844
O 51.865482330322266 45.66043472290039 51.10829544067383
C 53.05598068237305 46.358821868896484 52.967323303222656
C 54.313682556152344 46.27695846557617 52.42757034301758
H 54.34777069091797 46.33530044555664 51.34267044067383
C 55.48470687866211 46.21274185180664 53.13916015625
C 55.38090133666992 46.2284049987793 54.4848518371582
H 56.25489044189453 46.120853424072266 55.12215042114258
C 54.10814666748047 46.32448959350586 55.12888717651367
H 54.03229904174805 46.280460357666016 56.212345123291016
C 52.98683547973633 46.40957260131836 54.36027908325195
H 52.00492477416992 46.3808479309082 54.825679779052734
C 56.72219467163086 46.389949798583984 52.406532287597656
H 56.577064514160156 46.44240188598633 51.32851791381836
C 58.058326721191406 46.41438674926758 52.83022689819336
H 58.21019744873047 46.29257583618164 53.90168380737305
C 59.33647155761719 46.655513763427734 52.14457321166992
C 59.35183334350586 46.608951568603516 50.63066101074219
H 58.384586334228516 46.48521041870117 50.13915252685547
H 60.014137268066406 45.78811264038086 50.3477668762207
H 59.916717529296875 47.4409065246582 50.204959869384766
C 60.488616943359375 46.71444320678711 52.80801010131836
H 60.30774688720703 46.65646743774414 53.88032150268555
C 61.864105224609375 46.97116470336914 52.45561218261719
H 62.031192779541016 47.1540412902832 51.39516067504883
C 62.874637603759766 46.99501419067383 53.351951599121094
H 62.64094924926758 46.60164260864258 54.34016799926758
C 64.27857208251953 47.16239547729492 52.933441162109375
C 65.26666259765625 46.59652328491211 53.93635559082031
H 66.2413330078125 46.36941146850586 53.49943542480469
H 65.34394073486328 47.2164192199707 54.8320198059082
H 64.93878173828125 45.61355209350586 54.28092956542969
C 64.69160461425781 47.80013656616211 51.78755187988281
H 63.955257415771484 48.20866775512695 51.09702682495117
C 66.12477111816406 48.028629302978516 51.433685302734375
H 66.8853988647461 47.91569137573242 52.20479202270508
C 66.43974304199219 48.62965774536133 50.26630783081055
H 65.633544921875 49.00722122192383 49.63908004760742
C 67.85470581054688 48.79734420776367 49.90614700317383
H 68.50572967529297 48.4668083190918 50.71413040161133
C 68.36378479003906 49.3306999206543 48.775978088378906
C 67.58391571044922 49.683162689208984 47.60907745361328
H 67.45014953613281 50.76193618774414 47.50502395629883
H 68.13607025146484 49.3296012878418 46.73581314086914
H 66.59282684326172 49.226009368896484 47.57440948486328
C 69.71786499023438 49.71833419799805 48.81317901611328
H 70.33415222167969 49.17232131958008 49.52590560913086
C 70.2391586303711 50.802738189697266 48.224205017089844
H 69.65081024169922 51.34769821166992 47.48746109008789
C 71.564208984375 51.39022445678711 48.520591735839844
H 71.99224090576172 51.09463119506836 49.47732162475586
C 72.2919921875 52.19596481323242 47.739017486572266
C 71.71435546875 52.64656448364258 46.46421813964844
H 70.72352600097656 53.10541915893555 46.45075988769531
H 72.27711486816406 53.4884147644043 46.05549240112305
H 71.7280502319336 51.774234771728516 45.80747604370117
C 73.6167221069336 52.666561126708984 48.11046600341797
H 73.88362121582031 52.560733795166016 49.16093826293945
C 74.5403823852539 53.17863845825195 47.25333023071289
H 74.35885620117188 52.962955474853516 46.201446533203125
C 75.87206268310547 53.44694900512695 47.692073822021484
C 76.2303466796875 54.301883697509766 48.660118103027344
C 75.27005004882812 55.21097183227539 49.41818618774414
H 74.39096069335938 55.44711685180664 48.8149528503418
H 75.04058837890625 54.87467575073242 50.43145751953125
H 75.72317504882812 56.18973922729492 49.588951110839844
C 77.69913482666016 54.4018669128418 49.158626556396484
H 77.88327026367188 53.923465728759766 50.12282943725586
H 77.82637786865234 55.46017074584961 49.39583206176758
C 78.73135375976562 53.853328704833984 48.09280776977539
H 79.74626159667969 53.68912887573242 48.46086883544922
H 78.96277618408203 54.5947380065918 47.32520294189453
C 78.23794555664062 52.4951286315918 47.60898971557617
H 79.00875854492188 52.0654411315918 46.96581268310547
H 78.0232925415039 51.78175735473633 48.40741729736328
C 76.9227066040039 52.70827865600586 46.88999938964844
C 77.27281951904297 53.36069869995117 45.600791931152344
H 77.50537109375 54.42612838745117 45.657711029052734
H 78.2019271850586 52.991336822509766 45.16169738769531
H 76.4843978881836 53.26975631713867 44.85074234008789
C 76.5731201171875 51.21384048461914 46.40900421142578
H 77.48593139648438 50.79849624633789 45.97688293457031
H 76.22847747802734 50.59347152709961 47.238956451416016
H 75.71913146972656 51.17990493774414 45.72929763793945
