207
Triad, Carotenoid-Porphyrin-C60
C 39.262596130371094 35.30854415893555 46.72618103027344
C 44.56330108642578 39.12275695800781 46.95234680175781
C 43.93408966064453 37.414642333984375 48.41010284423828
C 42.4544677734375 35.55959701538086 48.338253021240234
C 44.07060623168945 39.8452033996582 44.739078521728516
C 44.10541534423828 40.0841178894043 46.10341262817383
C 45.122032165527344 37.6990852355957 45.07756805419922
C 44.30156707763672 35.60087203979492 46.831329345703125
C 40.526493072509766 34.4140739440918 45.03956985473633
C 44.62986755371094 38.62498092651367 44.239219665527344
C 40.4107780456543 34.797672271728516 47.27950668334961
C 40.9473991394043 39.64099884033203 43.11569595336914
C 42.92135238647461 40.36458206176758 44.20265579223633
C 39.53394317626953 37.71129608154297 43.09445571899414
C 40.77558517456055 35.63490676879883 42.9930305480957
C 39.62421417236328 36.35863494873047 43.35059356689453
C 42.81442642211914 38.5067024230957 42.690555572509766
C 44.80400848388672 36.3988037109375 44.61198043823242
C 44.439693450927734 35.39391326904297 45.49689865112305
C 42.68438720703125 34.705169677734375 43.824554443359375
C 40.31759262084961 39.55173873901367 48.67578887939453
C 40.799957275390625 40.48073959350586 47.54035568237305
C 41.562992095947266 38.82646560668945 49.01494598388672
C 42.65485763549805 39.456119537353516 48.36363220214844
C 38.37682342529297 37.245994567871094 44.96260452270508
C 40.067543029785156 40.63670349121094 46.37902069091797
C 41.08750915527344 35.534420013427734 48.27702713012695
C 40.15311813354492 40.21049880981445 44.11594772338867
C 42.170684814453125 40.92871856689453 45.17692565917969
C 38.7497673034668 38.26744842529297 44.11277389526367
C 41.64478302001953 37.47540283203125 49.194297790527344
C 41.72331619262695 37.68669891357422 42.3286018371582
C 41.82322311401367 36.312198638916016 42.493141174316406
C 43.353302001953125 34.54836654663086 45.06489944458008
C 44.08484649658203 36.58723449707031 43.43650817871094
C 39.049232482910156 38.662322998046875 48.37786102294922
C 38.57664108276367 38.79895782470703 46.891212463378906
C 39.378108978271484 37.23178482055664 48.30514144897461
C 38.33547592163086 37.53651428222656 46.321773529052734
C 41.28358459472656 34.66622543334961 43.85154342651367
C 42.18697738647461 40.484344482421875 47.554962158203125
C 40.591026306152344 36.71025466918945 48.78955841064453
C 38.855003356933594 36.606258392333984 47.20304870605469
C 42.80791473388672 36.77272033691406 48.914024353027344
C 38.867122650146484 36.03031921386719 44.44331741333008
C 38.99365234375 39.79579162597656 46.00822067260742
C 40.76700210571289 40.88435363769531 45.16218566894531
C 43.86058044433594 38.75972366333008 48.13242721557617
C 42.898990631103516 40.71984100341797 46.35947036743164
C 43.04782485961914 35.754493713378906 43.01877975463867
C 39.06987380981445 39.50105285644531 44.62038040161133
C 39.347965240478516 35.08345413208008 45.34988021850586
C 45.145687103271484 37.89485168457031 46.476802825927734
C 44.68098068237305 36.857139587402344 47.329315185546875
C 43.22102355957031 34.928775787353516 47.29962921142578
C 41.193626403808594 34.19380187988281 46.23789978027344
C 42.3201789855957 39.743568420410156 43.08561706542969
C 40.608463287353516 38.40665054321289 42.561641693115234
C 42.61323165893555 34.181007385253906 46.22251892089844
C 43.996360778808594 37.940608978271484 43.21904754638672
C 39.8602180480957 40.3322639465332 49.883750915527344
N 38.602783203125 40.21696090698242 50.19435501098633
C 38.00625991821289 39.12175750732422 49.4824104309082
H 37.0681037902832 39.51960754394531 49.08715057373047
H 37.90612030029297 38.2835693359375 50.17671585083008
C 42.325904846191406 43.15242004394531 52.044315338134766
C 41.83705520629883 43.33107376098633 50.702144622802734
H 42.10064697265625 44.239322662353516 50.166259765625
C 41.02429962158203 42.4149169921875 50.05244827270508
H 40.68157196044922 42.52857208251953 49.02716827392578
C 40.759971618652344 41.21165084838867 50.619964599609375
C 41.90234375 41.93805694580078 52.6328239440918
H 42.026058197021484 41.80647659301758 53.704715728759766
C 41.01588821411133 41.008544921875 51.97233581542969
H 40.588687896728516 40.11726379394531 52.42475509643555
C 43.19096374511719 44.21928024291992 52.65363311767578
C 43.34449768066406 45.53121566772461 51.974571228027344
C 43.70061492919922 45.96333694458008 50.80622482299805
H 44.007389068603516 45.36713409423828 49.95319747924805
C 43.59872055053711 47.406768798828125 50.64900588989258
H 43.805850982666016 47.98147201538086 49.752323150634766
C 43.108421325683594 47.793094635009766 51.875709533691406
N 43.01600646972656 46.680084228515625 52.650691986083984
H 42.54070281982422 46.67336654663086 53.542972564697266
C 42.783660888671875 49.08134460449219 52.342403411865234
H 42.58031463623047 49.77003479003906 51.52370071411133
C 42.9078369140625 49.600223541259766 53.664424896240234
C 42.47974395751953 50.9137077331543 54.05253219604492
H 41.97715377807617 51.63887023925781 53.421051025390625
C 42.85820770263672 51.06490707397461 55.29269790649414
H 42.89775466918945 52.052310943603516 55.74068832397461
C 43.587284088134766 49.88570022583008 55.6827278137207
N 43.504329681396484 48.978145599365234 54.672813415527344
C 44.30957794189453 49.62997817993164 56.89301300048828
C 44.2404899597168 48.434547424316406 57.56474304199219
C 44.20502853393555 48.05221176147461 58.97404479980469
H 44.255245208740234 48.68854904174805 59.85141372680664
C 44.35403823852539 46.690887451171875 59.09070587158203
H 44.478397369384766 46.10610580444336 59.996131896972656
C 44.33237075805664 46.115699768066406 57.79437255859375
N 44.27316665649414 47.18390655517578 56.93761444091797
H 44.201560974121094 47.06754684448242 55.935890197753906
C 44.49165725708008 44.780052185058594 57.44693374633789
H 44.698974609375 44.10162353515625 58.27317810058594
C 44.36677551269531 44.247432708740234 56.0450553894043
C 44.65780258178711 42.89985656738281 55.642669677734375
H 45.07351303100586 42.131919860839844 56.28662872314453
C 44.344627380371094 42.81330108642578 54.280696868896484
H 44.3473014831543 41.99536895751953 53.567813873291016
C 43.82560348510742 44.013206481933594 53.87958908081055
N 43.91397476196289 44.841590881347656 54.95927810668945
C 47.64471435546875 52.29908752441406 57.74119186401367
C 47.45361328125 51.12956237792969 58.48125457763672
H 48.18983840942383 50.90553283691406 59.24894332885742
C 46.35676956176758 50.27325439453125 58.228233337402344
H 46.21895980834961 49.45576477050781 58.93128967285156
C 45.39455032348633 50.60047912597656 57.22006607055664
C 46.76809310913086 52.57329177856445 56.75835037231445
H 46.99615478515625 53.425235748291016 56.1229362487793
C 45.64936447143555 51.76442337036133 56.468910217285156
H 44.95664596557617 52.03168869018555 55.67500305175781
N 48.86283493041992 53.0692253112793 57.95098876953125
H 49.41715621948242 53.203853607177734 57.11871337890625
C 49.43651580810547 53.547489166259766 59.107173919677734
O 48.968563079833984 53.075660705566406 60.13215255737305
C 50.606231689453125 54.47260284423828 58.98737716674805
C 51.17233657836914 54.85173416137695 57.755897521972656
H 50.643524169921875 54.556392669677734 56.85329055786133
C 52.36124038696289 55.59950256347656 57.67891311645508
C 52.988773345947266 55.95771408081055 58.86358642578125
H 53.95144271850586 56.452049255371094 58.76128387451172
C 52.54958724975586 55.50277328491211 60.108436584472656
H 53.17110824584961 55.6570930480957 60.98677062988281
C 51.3521728515625 54.72264099121094 60.16807556152344
H 51.08818054199219 54.27263259887695 61.12168502807617
C 52.88750076293945 55.808860778808594 56.28009033203125
H 52.30281448364258 55.43217468261719 55.442134857177734
C 54.00790023803711 56.48260498046875 55.961761474609375
H 54.517330169677734 56.71682357788086 56.89532470703125
C 54.62112045288086 56.87641143798828 54.70730209350586
C 55.80514144897461 57.86884307861328 54.72915267944336
H 55.35710525512695 58.80025100708008 54.37671661376953
H 56.589786529541016 57.49549865722656 54.067779541015625
H 56.25851821899414 57.99071502685547 55.715084075927734
C 54.23287582397461 56.362510681152344 53.546783447265625
H 53.50685501098633 55.55305480957031 53.60678482055664
C 54.620426177978516 56.684730529785156 52.208839416503906
H 55.486568450927734 57.34046173095703 52.13301086425781
C 54.07321548461914 56.20926284790039 51.05701446533203
H 53.1175422668457 55.73408889770508 51.27339172363281
C 54.40996170043945 56.5579833984375 49.665531158447266
C 53.24479293823242 56.60953140258789 48.71608352661133
H 53.22530746459961 57.50434112548828 48.09046936035156
H 53.21519088745117 55.68910598754883 48.12921905517578
H 52.355594635009766 56.5756721496582 49.34904861450195
C 55.64848709106445 57.012046813964844 49.37599563598633
H 56.419857025146484 56.763511657714844 50.10342025756836
C 56.08967208862305 57.51815414428711 48.104026794433594
H 55.3381233215332 57.34565734863281 47.33504104614258
C 57.32515335083008 58.07636642456055 47.949188232421875
H 57.97318649291992 58.136322021484375 48.82233428955078
C 57.98472213745117 58.3846549987793 46.71165466308594
H 57.3470344543457 58.34835433959961 45.829627990722656
C 59.196712493896484 58.85068893432617 46.539894104003906
C 60.117183685302734 59.100555419921875 47.68601608276367
H 59.7878532409668 59.95399856567383 48.282371520996094
H 60.2149543762207 58.227657318115234 48.3348274230957
H 61.140140533447266 59.32946014404297 47.380043029785156
C 59.83454513549805 59.22208023071289 45.337528228759766
H 60.592281341552734 60.001468658447266 45.40317916870117
C 59.57059097290039 58.798152923583984 44.099517822265625
H 58.847476959228516 57.998497009277344 43.94594955444336
C 60.409183502197266 59.295223236083984 42.93588638305664
H 61.087276458740234 60.12833786010742 43.114871978759766
C 60.24618148803711 58.90397644042969 41.61299514770508
C 59.27725601196289 57.781097412109375 41.251136779785156
H 59.078678131103516 57.07939147949219 42.06393051147461
H 58.30268478393555 58.25089645385742 41.102962493896484
H 59.617610931396484 57.185245513916016 40.401676177978516
C 61.013362884521484 59.37110900878906 40.45381164550781
H 62.04507827758789 59.6196403503418 40.698211669921875
C 60.5953254699707 59.46238327026367 39.17715835571289
H 59.51956558227539 59.337432861328125 39.062889099121094
C 61.2704963684082 60.12637710571289 38.05720138549805
C 62.60538101196289 59.97665786743164 37.71230697631836
C 63.565914154052734 59.104454040527344 38.45872497558594
H 63.80832290649414 58.24256134033203 37.83354949951172
H 64.41938018798828 59.61207580566406 38.91301727294922
H 63.062137603759766 58.61095428466797 39.29247283935547
C 63.369686126708984 60.60945510864258 36.591331481933594
H 64.0694351196289 59.91911315917969 36.115684509277344
H 63.91170883178711 61.34654235839844 37.187461853027344
C 62.428348541259766 61.24808120727539 35.57661056518555
H 61.90848159790039 60.58530044555664 34.88167953491211
H 62.89027786254883 62.00669860839844 34.94132614135742
C 61.32011032104492 62.003807067871094 36.3729248046875
H 61.6040153503418 62.88362121582031 36.95411682128906
H 60.65659713745117 62.47322082519531 35.64363098144531
C 60.47172164916992 61.1492805480957 37.25334930419922
C 59.71889114379883 62.21470642089844 38.110958099365234
H 59.205875396728516 62.98149871826172 37.526737213134766
H 59.02237319946289 61.73899841308594 38.80451965332031
H 60.48990249633789 62.693973541259766 38.71783447265625
C 59.369747161865234 60.57392120361328 36.394779205322266
H 58.7963981628418 61.391151428222656 35.95222473144531
H 59.85690689086914 59.95088577270508 35.64181137084961
H 58.67422103881836 59.993614196777344 37.00466537475586
