207
Triad, Carotenoid-Porphyrin-C60
C 48.38176345825195 51.67570495605469 64.2111587524414
C 49.83413314819336 50.3502197265625 58.10089111328125
C 47.99795913696289 49.84429931640625 59.25901412963867
C 46.74108123779297 50.48551940917969 61.229225158691406
C 51.61952590942383 52.0081787109375 58.150535583496094
C 51.18054962158203 50.67182159423828 58.13846969604492
C 49.34394836425781 52.73689270019531 57.907806396484375
C 47.09527587890625 52.031105041503906 59.40238571166992
C 48.019264221191406 53.689674377441406 63.24310302734375
C 50.70393753051758 52.98741912841797 58.04365921020508
C 47.2972297668457 51.58357238769531 63.3143310546875
C 53.25264358520508 53.13872528076172 61.11804962158203
C 52.6624641418457 52.121795654296875 59.012290954589844
C 52.0498161315918 53.84156036376953 63.169044494628906
C 49.96684646606445 54.967308044433594 62.589027404785156
C 50.744285583496094 54.30290985107422 63.50809860229492
C 51.97490310668945 54.348609924316406 59.639217376708984
C 48.60759735107422 53.727996826171875 58.61880111694336
C 47.50456619262695 53.38152313232422 59.352909088134766
C 48.26734161376953 54.802833557128906 61.129547119140625
C 50.71534729003906 48.190757751464844 62.03335952758789
C 51.80923843383789 48.778343200683594 61.207733154296875
C 49.54513168334961 48.293304443359375 61.0402946472168
C 50.03076934814453 48.619712829589844 59.768653869628906
C 51.10474395751953 52.25616455078125 64.41120147705078
C 52.591712951660156 49.78977966308594 61.71868896484375
C 47.10939407348633 50.43583679199219 62.547515869140625
C 53.458621978759766 51.877967834472656 61.658870697021484
C 52.84576416015625 50.874061584472656 59.57806396484375
C 52.273887634277344 52.57587432861328 63.69507598876953
C 48.2716064453125 48.84474182128906 61.46358108520508
C 51.73672103881836 54.84382629394531 60.9310417175293
C 50.422332763671875 55.223846435546875 61.283206939697266
C 47.305362701416016 53.917137145996094 60.60948944091797
C 49.55448532104492 54.607261657714844 59.152801513671875
C 50.45341110229492 48.74463653564453 63.45445251464844
C 51.35536193847656 49.942955017089844 63.77226638793945
C 49.07186508178711 49.38380432128906 63.71435546875
C 50.69061279296875 50.932044982910156 64.43878173828125
C 48.61145782470703 54.64375305175781 62.44941329956055
C 51.3562126159668 48.98157501220703 59.92635726928711
C 48.08366394042969 49.37739562988281 62.70543670654297
C 49.30443572998047 50.63201141357422 64.33380889892578
C 47.53269577026367 49.547889709472656 60.577091217041016
C 50.1583251953125 53.270790100097656 64.26466369628906
C 52.45695877075195 50.31060028076172 62.95924758911133
C 53.19219970703125 50.72081756591797 60.94154739379883
C 49.25733947753906 49.34718322753906 58.857818603515625
C 51.86182403564453 49.993072509765625 59.14189529418945
C 49.390586853027344 55.16380310058594 60.40840148925781
C 52.94830322265625 51.63957977294922 62.94076919555664
C 48.848655700683594 52.97857666015625 64.16284942626953
C 48.91427230834961 51.41081237792969 57.93201446533203
C 47.76423263549805 51.087928771972656 58.66626739501953
C 46.55623245239258 51.7637939453125 60.63188934326172
C 47.074859619140625 52.82506561279297 62.74410629272461
C 52.879844665527344 53.28966522216797 59.762699127197266
C 52.52424621582031 54.11731719970703 61.864471435546875
C 46.656009674072266 52.938629150390625 61.38399124145508
C 50.837703704833984 54.15382385253906 58.82626724243164
C 50.92737579345703 46.697898864746094 62.323272705078125
N 50.96477127075195 46.42108917236328 63.54863739013672
C 50.727516174316406 47.611610412597656 64.44117736816406
H 51.657535552978516 47.729164123535156 65.00321960449219
H 49.94163513183594 47.33635711669922 65.1491928100586
C 50.55000305175781 43.71540832519531 59.23618698120117
C 49.55317306518555 43.86896514892578 60.24832534790039
H 48.676456451416016 43.232948303222656 60.34009552001953
C 49.756656646728516 44.80389404296875 61.30278396606445
H 49.08987808227539 44.88886260986328 62.157039642333984
C 50.85073471069336 45.687049865722656 61.25233459472656
C 51.67401885986328 44.63841247558594 59.22905731201172
H 52.319332122802734 44.56378173828125 58.35752487182617
C 51.86069107055664 45.62092590332031 60.174991607666016
H 52.6160774230957 46.398895263671875 60.25056076049805
C 50.488277435302734 42.621070861816406 58.21744155883789
C 49.31093215942383 41.76084899902344 58.35414123535156
C 48.7769889831543 41.05475616455078 59.39263153076172
H 49.19438552856445 40.78174591064453 60.356204986572266
C 47.62574005126953 40.36625671386719 58.89413833618164
H 46.99196243286133 39.68426513671875 59.45130920410156
C 47.434326171875 40.737213134765625 57.60587692260742
N 48.44529342651367 41.612449645996094 57.30879592895508
H 48.43059539794922 42.223106384277344 56.5031852722168
C 46.51792907714844 40.22779083251953 56.592464447021484
H 45.54523468017578 40.13451385498047 57.073177337646484
C 46.373714447021484 40.518470764160156 55.21881103515625
C 45.10533142089844 40.9212646484375 54.60124969482422
H 44.19332504272461 41.163795471191406 55.13665008544922
C 45.41756057739258 41.11992645263672 53.25326919555664
H 44.77936935424805 41.56603240966797 52.49767303466797
C 46.825504302978516 40.83160400390625 53.11160659790039
N 47.3555793762207 40.41786193847656 54.30254364013672
C 47.637123107910156 40.906150817871094 51.97218704223633
C 48.96844482421875 41.10498809814453 51.9784049987793
C 49.97542190551758 40.75392150878906 51.025081634521484
H 49.817970275878906 40.363136291503906 50.02522277832031
C 51.22475814819336 40.984703063964844 51.547664642333984
H 52.25046920776367 40.88292694091797 51.208858489990234
C 51.1412467956543 41.44012451171875 52.84844970703125
N 49.77314376831055 41.43367004394531 53.050498962402344
H 49.29220199584961 41.53630065917969 53.933837890625
C 52.161624908447266 41.72943115234375 53.724708557128906
H 53.18718719482422 41.68541717529297 53.361106872558594
C 52.12709426879883 42.14130401611328 55.110595703125
C 53.2223014831543 42.19982147216797 56.05751419067383
H 54.21574020385742 41.939056396484375 55.70779037475586
C 52.69488525390625 42.42997741699219 57.273094177246094
H 53.287010192871094 42.390907287597656 58.18143844604492
C 51.37753677368164 42.509483337402344 57.151771545410156
N 51.03532409667969 42.38948059082031 55.86993408203125
C 45.97693634033203 40.85906982421875 47.92514419555664
C 47.11345672607422 41.577308654785156 48.17957305908203
H 47.403778076171875 42.21190643310547 47.346160888671875
C 47.59358596801758 41.69145965576172 49.4493522644043
H 48.42574691772461 42.364356994628906 49.63986587524414
C 47.04450225830078 41.038307189941406 50.59115982055664
C 45.342166900634766 40.16668701171875 49.00849533081055
H 44.44313430786133 39.58386993408203 48.82510757446289
C 45.900543212890625 40.280555725097656 50.313907623291016
H 45.48967361450195 39.66386413574219 51.10917282104492
N 45.306392669677734 40.7882080078125 46.71410369873047
H 44.3291130065918 40.64380645751953 46.9194221496582
C 45.765960693359375 41.01802062988281 45.44424819946289
O 46.94752502441406 41.333473205566406 45.298927307128906
C 44.776424407958984 41.10735321044922 44.27482604980469
C 45.04431915283203 42.00861358642578 43.21894836425781
H 45.99192428588867 42.535064697265625 43.29930877685547
C 44.18959426879883 42.18360900878906 42.219398498535156
C 43.15222930908203 41.319664001464844 41.94951248168945
H 42.483734130859375 41.28504180908203 41.09307098388672
C 42.875450134277344 40.45152282714844 43.043495178222656
H 42.02055740356445 39.78144073486328 43.00190353393555
C 43.57557678222656 40.40574645996094 44.287662506103516
H 43.28864669799805 39.794456481933594 45.13946533203125
C 44.5780143737793 43.23938751220703 41.24839401245117
H 45.468624114990234 43.752174377441406 41.60865020751953
C 44.02467727661133 43.60852813720703 40.08042907714844
H 43.18365478515625 42.99110412597656 39.76835632324219
C 44.54722595214844 44.6148681640625 39.17947006225586
C 45.36799240112305 45.73973846435547 39.84248352050781
H 44.798095703125 45.96617126464844 40.746028900146484
H 45.44724655151367 46.66624450683594 39.26997375488281
H 46.34269332885742 45.33001708984375 40.11552429199219
C 44.2705078125 44.662384033203125 37.868900299072266
H 43.60724639892578 43.86054229736328 37.5478630065918
C 44.813926696777344 45.621498107910156 36.954933166503906
H 45.73208999633789 46.13502502441406 37.236331939697266
C 44.15842819213867 45.8719482421875 35.80508804321289
H 43.26676559448242 45.30072021484375 35.550987243652344
C 44.562774658203125 46.802032470703125 34.734371185302734
C 44.16756820678711 46.60929870605469 33.3117790222168
H 45.04076385498047 46.21397399902344 32.78859329223633
H 43.469757080078125 45.77342987060547 33.22898483276367
H 43.75912094116211 47.46369934082031 32.76805877685547
C 45.33147048950195 47.834747314453125 35.00709915161133
H 45.54064178466797 47.87529754638672 36.075050354003906
C 45.937137603759766 48.803497314453125 34.125728607177734
H 45.85972213745117 48.65240478515625 33.050045013427734
C 46.372039794921875 49.949188232421875 34.63197708129883
H 46.327327728271484 50.1591796875 35.69960403442383
C 46.90345764160156 51.06451416015625 33.763519287109375
H 46.94478988647461 50.92516326904297 32.684261322021484
C 47.39661407470703 52.17540740966797 34.232383728027344
C 47.314971923828125 52.56749725341797 35.68632507324219
H 46.52003860473633 52.0848388671875 36.25867462158203
H 48.24433898925781 52.427940368652344 36.2424430847168
H 47.01266860961914 53.61408233642578 35.76201248168945
C 48.06820297241211 53.11797332763672 33.34241485595703
H 48.19243621826172 52.81366729736328 32.304195404052734
C 48.648651123046875 54.240196228027344 33.67197036743164
H 48.63513946533203 54.58452606201172 34.70500946044922
C 49.432151794433594 55.088294982910156 32.739906311035156
H 49.03264617919922 55.06575012207031 31.72708511352539
C 50.388004302978516 55.971038818359375 32.970340728759766
C 51.08342361450195 55.933746337890625 34.25946807861328
H 51.490501403808594 54.95464324951172 34.52042770385742
H 51.88775634765625 56.672332763671875 34.25651931762695
H 50.35546875 56.305320739746094 34.98367691040039
C 50.916263580322266 56.84326934814453 31.95025634765625
H 51.902381896972656 57.27235412597656 32.121673583984375
C 50.23501968383789 57.386756896972656 30.914356231689453
H 49.17499923706055 57.15776824951172 30.81517219543457
C 50.68421173095703 58.305908203125 29.798664093017578
C 52.007972717285156 58.582489013671875 29.44981575012207
C 53.252384185791016 57.866737365722656 30.000770568847656
H 54.09493637084961 57.88642120361328 29.306371688842773
H 53.53660583496094 58.35834503173828 30.933509826660156
H 52.90201187133789 56.855804443359375 30.219215393066406
C 52.43904113769531 59.47821807861328 28.3389949798584
H 53.24368667602539 59.02339172363281 27.757495880126953
H 52.848201751708984 60.43555450439453 28.668495178222656
C 51.30342102050781 59.73322296142578 27.31777000427246
H 50.884124755859375 58.847084045410156 26.836692810058594
H 51.54533004760742 60.46855926513672 26.547563552856445
C 50.07635498046875 60.22444152832031 28.16285514831543
H 50.39228820800781 61.02803039550781 28.831356048583984
H 49.31218338012695 60.50432586669922 27.434728622436523
C 49.50999450683594 59.10455322265625 29.005306243896484
C 48.55493927001953 59.87523651123047 29.9997501373291
H 49.24079132080078 60.392486572265625 30.673921585083008
H 47.80373764038086 60.505760192871094 29.519546508789062
H 47.967288970947266 59.16680908203125 30.587337493896484
C 48.7249641418457 58.180091857910156 28.073686599731445
H 49.41913604736328 57.62097930908203 27.44283103942871
H 48.05567169189453 57.488182067871094 28.589216232299805
H 48.104591369628906 58.71636199951172 27.352567672729492
