207
Triad, Carotenoid-Porphyrin-C60
C 32.73502731323242 49.07098388671875 36.934757232666016
C 36.06926727294922 43.56689453125 37.496315002441406
C 34.538597106933594 44.51112365722656 38.901145935058594
C 32.782875061035156 46.079795837402344 38.799922943115234
C 36.70597457885742 43.63494110107422 35.155426025390625
C 36.96826934814453 43.865623474121094 36.49973678588867
C 34.42783737182617 42.8902587890625 35.75283432006836
C 32.60704803466797 44.111602783203125 37.47608947753906
C 31.671899795532227 47.779685974121094 35.41342544555664
C 35.421844482421875 43.26659393310547 34.80101013183594
C 32.103973388671875 48.04277801513672 37.603919982910156
C 36.71707534790039 46.69792175292969 33.210166931152344
C 37.33216094970703 44.68053436279297 34.4447135925293
C 34.920936584472656 48.25096893310547 33.172752380371094
C 32.822635650634766 47.19227600097656 33.37457275390625
C 33.57099914550781 48.305450439453125 33.52238845825195
C 35.437652587890625 44.88636016845703 33.068241119384766
C 33.188743591308594 43.26161193847656 35.24435043334961
C 32.34046936035156 43.86962127685547 36.085933685302734
C 31.784040451049805 45.56150817871094 34.42814636230469
C 37.092533111572266 47.879676818847656 38.80113220214844
C 37.83602523803711 47.18372344970703 37.618282318115234
C 36.27055358886719 46.705772399902344 39.27149963378906
C 36.766841888427734 45.50788879394531 38.74806594848633
C 34.691925048828125 49.6466064453125 34.984073638916016
C 37.913414001464844 47.68011474609375 36.32606887817383
C 32.8353385925293 47.467079162597656 38.65096664428711
C 37.37855911254883 47.482147216796875 34.13090515136719
C 37.93549728393555 45.48859405517578 35.38792419433594
C 35.620975494384766 49.058441162109375 34.08482360839844
C 34.88318634033203 46.84938049316406 39.43831253051758
C 34.722900390625 45.961517333984375 32.61582946777344
C 33.324859619140625 46.032188415527344 32.892765045166016
C 31.550472259521484 44.959693908691406 35.68369674682617
C 33.42300033569336 43.82982635498047 33.985557556152344
C 36.25291442871094 49.10240173339844 38.33348846435547
C 36.30595016479492 49.42584228515625 36.84303283691406
C 34.69646072387695 49.02833557128906 38.448856353759766
C 35.005374908447266 49.81269073486328 36.330997467041016
C 31.865528106689453 46.93330383300781 34.339073181152344
C 37.64189147949219 45.82087707519531 37.7259407043457
C 34.107154846191406 47.93310546875 39.06026077270508
C 34.064796447753906 49.527687072753906 37.328529357910156
C 34.071754455566406 45.73902130126953 39.24919509887695
C 33.42700958251953 49.20311737060547 34.61017608642578
C 37.13640213012695 48.80023956298828 35.94031524658203
C 38.0031852722168 46.84392547607422 35.2043342590332
C 35.92133712768555 44.395973205566406 38.60667419433594
C 37.80072021484375 44.936546325683594 36.62446975708008
C 32.76338577270508 45.020172119140625 33.62971878051758
C 36.83487319946289 48.65739440917969 34.57173538208008
C 32.427276611328125 48.97746276855469 35.56221389770508
C 34.7633171081543 43.11353302001953 37.13385009765625
C 33.85003662109375 43.76139831542969 37.951904296875
C 32.04875183105469 45.27288055419922 37.883331298828125
C 31.37786865234375 47.229339599609375 36.7341423034668
C 36.657920837402344 45.319091796875 33.40201950073242
C 35.49869918823242 47.034645080566406 32.73847579956055
C 31.361047744750977 45.8084716796875 36.776123046875
C 34.797027587890625 43.81995391845703 33.734004974365234
C 38.03759002685547 48.505393981933594 39.8422737121582
N 37.963741302490234 49.80475616455078 39.84283447265625
C 36.853424072265625 50.293365478515625 39.05924606323242
H 37.22703170776367 51.02587890625 38.33917999267578
H 36.09669494628906 50.670562744140625 39.75187301635742
C 41.576316833496094 46.26019287109375 41.10490798950195
C 41.64317321777344 47.20404815673828 40.09417724609375
H 42.53858184814453 47.384056091308594 39.5047607421875
C 40.479835510253906 47.94720458984375 39.73713302612305
H 40.54812240600586 48.564186096191406 38.844810485839844
C 39.24300003051758 47.86817932128906 40.38380432128906
C 40.2853889465332 46.2125244140625 41.82709884643555
H 40.24931335449219 45.576072692871094 42.70754623413086
C 39.163936614990234 46.94557189941406 41.44865798950195
H 38.33036422729492 46.83497619628906 42.13749313354492
C 42.80506134033203 45.470680236816406 41.58879470825195
C 44.05323791503906 45.80706024169922 41.0790901184082
C 44.487030029296875 45.69481658935547 39.787960052490234
H 43.89264678955078 45.35676574707031 38.945552825927734
C 45.844600677490234 46.01698303222656 39.81605529785156
H 46.585472106933594 45.964202880859375 39.02513885498047
C 46.251380920410156 46.19221496582031 41.0902214050293
N 45.16059875488281 46.214454650878906 41.830265045166016
H 45.207496643066406 46.203369140625 42.84011459350586
C 47.607418060302734 46.350921630859375 41.644344329833984
H 48.42973709106445 46.46550750732422 40.93965530395508
C 47.96241760253906 46.625831604003906 42.963993072509766
C 49.289695739746094 46.847450256347656 43.44656753540039
H 50.206050872802734 46.894203186035156 42.867496490478516
C 49.14799499511719 46.8118896484375 44.81326675415039
H 49.93893814086914 46.846641540527344 45.555179595947266
C 47.77187728881836 46.605751037597656 45.16334915161133
N 47.05752182006836 46.52123260498047 44.03956985473633
C 47.215328216552734 46.55956268310547 46.52347946166992
C 46.314640045166016 45.579322814941406 46.956058502197266
C 46.40657424926758 44.53827667236328 47.94858932495117
H 47.18395233154297 44.500152587890625 48.704532623291016
C 45.45035934448242 43.585060119628906 47.653926849365234
H 45.397335052490234 42.670555114746094 48.23539352416992
C 44.770233154296875 43.94587707519531 46.49300765991211
N 45.20692443847656 45.170448303222656 46.20785903930664
H 44.75416946411133 45.645652770996094 45.43888473510742
C 43.7796516418457 43.27400207519531 45.85148239135742
H 43.623050689697266 42.290565490722656 46.29221725463867
C 43.092288970947266 43.597190856933594 44.614566802978516
C 42.194461822509766 42.80194091796875 43.8486442565918
H 41.7679443359375 41.86547088623047 44.192630767822266
C 41.910404205322266 43.47210693359375 42.653743743896484
H 41.22338104248047 43.148597717285156 41.878787994384766
C 42.65630340576172 44.6463623046875 42.68111038208008
N 43.437461853027344 44.639129638671875 43.774532318115234
C 48.815711975097656 49.40406799316406 49.45987319946289
C 47.942893981933594 48.37933349609375 49.849979400634766
H 47.61381912231445 48.317039489746094 50.884098052978516
C 47.343021392822266 47.481964111328125 48.92414474487305
H 46.52080535888672 46.788291931152344 49.08018112182617
C 47.66775131225586 47.5941162109375 47.54366683959961
C 49.14895248413086 49.52525329589844 48.13095474243164
H 49.774314880371094 50.387908935546875 47.91574478149414
C 48.576499938964844 48.622474670410156 47.21310806274414
H 48.81929397583008 48.71971130371094 46.15803909301758
N 49.36442184448242 50.43780517578125 50.33384323120117
H 48.98286437988281 51.35929870605469 50.1810417175293
C 50.15536117553711 50.20166015625 51.445491790771484
O 50.544288635253906 49.067588806152344 51.529911041259766
C 50.51806640625 51.358062744140625 52.34981155395508
C 51.779415130615234 51.36090087890625 52.982112884521484
H 52.450775146484375 50.516090393066406 52.85117721557617
C 52.12788391113281 52.40899658203125 53.8518180847168
C 51.29199981689453 53.503204345703125 54.006160736083984
H 51.55950164794922 54.28575897216797 54.71158218383789
C 50.05828094482422 53.531455993652344 53.31150436401367
H 49.436134338378906 54.40354919433594 53.495792388916016
C 49.66080856323242 52.42909240722656 52.506282806396484
H 48.709049224853516 52.416839599609375 51.981327056884766
C 53.471458435058594 52.41334533691406 54.53803634643555
H 53.911170959472656 51.459381103515625 54.2507438659668
C 53.99845504760742 53.32427978515625 55.36323165893555
H 53.34807205200195 54.157310485839844 55.62588119506836
C 55.188663482666016 53.26142120361328 56.15336990356445
C 56.24528121948242 52.33360290527344 55.676578521728516
H 57.15964126586914 52.34296417236328 56.273502349853516
H 56.63850784301758 52.49613952636719 54.6708869934082
H 55.9110107421875 51.29405975341797 55.685543060302734
C 55.17512893676758 53.84143829345703 57.36172866821289
H 54.28715515136719 54.386390686035156 57.67866897583008
C 56.21780014038086 53.832801818847656 58.363651275634766
H 57.078468322753906 53.25891876220703 58.023311614990234
C 56.35691452026367 54.532936096191406 59.46865463256836
H 55.56475830078125 55.259056091308594 59.6451530456543
C 57.47916793823242 54.3704833984375 60.41739273071289
C 57.4056282043457 55.23052215576172 61.62038803100586
H 57.491455078125 54.61662292480469 62.519405364990234
H 58.15026092529297 56.02781677246094 61.66838455200195
H 56.42680740356445 55.6549072265625 61.853336334228516
C 58.45675277709961 53.50519561767578 60.27205276489258
H 58.5034294128418 52.884315490722656 59.378604888916016
C 59.598411560058594 53.25536346435547 61.20180892944336
H 59.582218170166016 53.7548828125 62.16935348510742
C 60.53121566772461 52.39460754394531 60.969913482666016
H 60.56023025512695 51.97077178955078 59.96719741821289
C 61.667205810546875 52.07506561279297 61.84406661987305
H 61.89973068237305 52.86962127685547 62.55155563354492
C 62.54972839355469 51.078086853027344 61.65451431274414
C 62.41728591918945 50.02558898925781 60.641902923583984
H 62.72447204589844 50.444252014160156 59.681270599365234
H 63.004722595214844 49.12299346923828 60.8227424621582
H 61.391693115234375 49.67573547363281 60.50687789916992
C 63.745418548583984 51.00914001464844 62.47377395629883
H 63.66808319091797 51.551658630371094 63.41484451293945
C 64.83393096923828 50.273956298828125 62.33378219604492
H 64.97461700439453 49.71349334716797 61.41073989868164
C 65.86592102050781 50.44122314453125 63.34101486206055
H 65.69086456298828 51.230735778808594 64.07035064697266
C 66.99336242675781 49.758087158203125 63.35507583618164
C 67.3251724243164 48.83280944824219 62.24148178100586
H 68.35144805908203 48.46015930175781 62.2227668762207
H 66.72040557861328 47.924156188964844 62.274112701416016
H 67.09965515136719 49.200035095214844 61.23810958862305
C 67.97817993164062 49.91926574707031 64.39808654785156
H 68.53227996826172 48.99644470214844 64.56330871582031
C 68.07097625732422 50.95667266845703 65.2658920288086
H 67.5367202758789 51.867469787597656 64.9995346069336
C 68.8370590209961 51.1767578125 66.50576782226562
C 69.13177490234375 50.172386169433594 67.36651611328125
C 68.64849090576172 48.768310546875 67.29429626464844
H 68.57521057128906 48.28948211669922 68.27297973632812
H 67.69094848632812 48.68280792236328 66.77635955810547
H 69.3504638671875 48.14899444580078 66.73202514648438
C 69.88482666015625 50.340126037597656 68.668212890625
H 70.47038269042969 49.42516326904297 68.77976989746094
H 69.05093383789062 50.43470764160156 69.36688232421875
C 70.77291870117188 51.61231994628906 68.60904693603516
H 71.60523223876953 51.530723571777344 67.90686798095703
H 71.24711608886719 51.74110412597656 69.5842514038086
C 69.96914672851562 52.866798400878906 68.21143341064453
H 69.19290924072266 53.050498962402344 68.95720672607422
H 70.67732238769531 53.69142150878906 68.31605529785156
C 69.35906982421875 52.64246368408203 66.8089370727539
C 68.26419067382812 53.75706481933594 66.80903625488281
H 67.53858184814453 53.56481170654297 67.60212707519531
H 68.766357421875 54.69353485107422 67.06066131591797
H 67.90367126464844 53.80317687988281 65.779296875
C 70.41919708251953 53.05351257324219 65.78860473632812
H 69.98762512207031 52.92198181152344 64.7941665649414
H 70.67915344238281 54.11180114746094 65.85873413085938
H 71.2507095336914 52.34919738769531 65.85919189453125
