207
Triad, Carotenoid-Porphyrin-C60
C 46.26841735839844 54.41775131225586 52.45146942138672
C 49.45384216308594 48.89027786254883 53.18830871582031
C 49.28595733642578 50.61538314819336 54.61412811279297
C 47.859947204589844 52.43532180786133 55.00273895263672
C 48.307838439941406 47.96873092651367 51.28549575805664
C 49.46818542480469 48.50624465942383 51.835079193115234
C 47.22468566894531 48.15337371826172 53.41972732543945
C 46.996490478515625 50.22364807128906 55.241268157958984
C 44.582061767578125 53.053287506103516 52.77646255493164
C 47.160247802734375 47.78583526611328 52.10440444946289
C 46.39611053466797 53.9254150390625 53.7590217590332
C 46.631690979003906 49.8408088684082 48.680519104003906
C 48.14231872558594 48.37648391723633 49.96009063720703
C 45.236114501953125 51.73987579345703 49.08811950683594
C 44.03749084472656 51.47835922241211 51.09563064575195
C 44.50433349609375 52.316375732421875 50.095191955566406
C 45.755775451660156 48.485904693603516 50.23394775390625
C 45.953643798828125 48.661720275878906 53.744686126708984
C 45.84295654296875 49.67951583862305 54.6701545715332
C 44.112083435058594 50.70343780517578 53.2385139465332
C 50.64922332763672 52.940574645996094 51.29280471801758
C 50.440155029296875 51.658058166503906 50.44755554199219
C 50.53363800048828 52.305267333984375 52.674495697021484
C 50.61268615722656 50.881446838378906 52.589656829833984
C 46.215003967285156 53.638790130615234 49.73406982421875
C 49.62903594970703 51.60814666748047 49.29344940185547
C 47.64671325683594 53.60178756713867 54.246524810791016
C 47.741004943847656 50.698001861572266 48.380950927734375
C 49.18890380859375 49.23521423339844 49.698158264160156
C 46.30354309082031 52.604339599609375 48.81426239013672
C 49.715293884277344 52.794437408447266 53.707950592041016
C 44.875518798828125 49.522369384765625 50.02332305908203
C 44.13059997558594 50.10246276855469 51.050689697265625
C 44.90460205078125 50.68525695800781 54.42125701904297
C 45.15247344970703 48.58266830444336 52.651885986328125
C 49.65991973876953 54.110042572021484 51.035682678222656
C 48.614784240722656 53.82754135131836 49.91341781616211
C 48.63615417480469 54.326683044433594 52.194252014160156
C 47.371185302734375 54.224605560302734 50.31770706176758
C 43.96476745605469 51.854209899902344 52.427886962890625
C 50.614219665527344 50.55012512207031 51.24104309082031
C 48.78429412841797 53.78805923461914 53.47512435913086
C 47.33196258544922 54.640750885009766 51.657161712646484
C 49.113311767578125 51.929664611816406 54.64691162109375
C 45.063232421875 53.50788879394531 50.494510650634766
C 48.72340393066406 52.66381072998047 49.09452819824219
C 49.01451873779297 50.36204528808594 48.86900329589844
C 50.024627685546875 50.08145523071289 53.57072067260742
C 49.97242736816406 49.35712814331055 50.857723236083984
C 44.283241271972656 49.634132385253906 52.39167785644531
C 47.57715606689453 52.07331848144531 48.51742172241211
C 45.12156677246094 53.897098541259766 51.84611511230469
C 48.354576110839844 48.67722702026367 54.01136016845703
C 48.27483367919922 49.7191276550293 54.914432525634766
C 46.8079833984375 51.58271026611328 55.2707633972168
C 45.34345245361328 53.04668045043945 53.976890563964844
C 46.87915802001953 48.69411849975586 49.43897247314453
C 45.38243103027344 50.344947814941406 49.00975799560547
C 45.60832977294922 51.87255859375 54.690792083740234
C 45.8917236328125 48.03192138671875 51.57375717163086
C 52.04540252685547 53.549537658691406 51.17472457885742
N 51.96339416503906 54.74721908569336 50.823570251464844
C 50.588035583496094 55.305850982666016 50.7273063659668
H 50.43353271484375 55.531494140625 49.6690673828125
H 50.44700622558594 56.18653106689453 51.359100341796875
C 55.648468017578125 51.33149337768555 52.05792236328125
C 54.894195556640625 51.94474411010742 53.134864807128906
H 55.24354553222656 51.7774543762207 54.1505126953125
C 53.704933166503906 52.62382125854492 52.85077667236328
H 53.04301452636719 53.074893951416016 53.58560562133789
C 53.261199951171875 52.836265563964844 51.527130126953125
C 55.244354248046875 51.65494155883789 50.75719451904297
H 55.697349548339844 51.142364501953125 49.91242599487305
C 54.02165222167969 52.331573486328125 50.504329681396484
H 53.56709289550781 52.484458923339844 49.528846740722656
C 56.851654052734375 50.477108001708984 52.367042541503906
C 57.253021240234375 50.25471115112305 53.76728057861328
C 57.670997619628906 51.09444046020508 54.713321685791016
H 57.759483337402344 52.15766143798828 54.51594161987305
C 58.072425842285156 50.352325439453125 55.83879470825195
H 58.52300262451172 50.767574310302734 56.734214782714844
C 57.95374298095703 49.00963592529297 55.542728424072266
N 57.255470275878906 49.03517150878906 54.393394470214844
H 56.945343017578125 48.20782470703125 53.902015686035156
C 58.3099365234375 47.775474548339844 56.20933151245117
H 58.55193328857422 47.890907287597656 57.26481246948242
C 58.049896240234375 46.519004821777344 55.758506774902344
C 58.36186218261719 45.43028259277344 56.59065246582031
H 58.776222229003906 45.45170211791992 57.59318542480469
C 58.03533935546875 44.349403381347656 55.80767822265625
H 58.227210998535156 43.30324935913086 56.022090911865234
C 57.57450866699219 44.8341064453125 54.50212478637695
N 57.64558410644531 46.199649810791016 54.44956970214844
C 57.101829528808594 44.111820220947266 53.360557556152344
C 57.56402587890625 44.3612174987793 52.0927848815918
C 58.31690979003906 43.52839279174805 51.168155670166016
H 58.45350646972656 42.464725494384766 51.333011627197266
C 58.685279846191406 44.31449508666992 50.05423355102539
H 59.12294006347656 44.01995086669922 49.10612106323242
C 58.327491760253906 45.66105270385742 50.36261749267578
N 57.74317169189453 45.56989288330078 51.56527328491211
H 57.626861572265625 46.398681640625 52.13246536254883
C 58.644798278808594 46.81987762451172 49.685298919677734
H 59.174644470214844 46.72275161743164 48.73885726928711
C 58.36864471435547 48.139984130859375 50.131744384765625
C 58.74028778076172 49.360107421875 49.5421142578125
H 59.29176330566406 49.47491455078125 48.61479949951172
C 58.09619903564453 50.29258728027344 50.24915313720703
H 58.08618927001953 51.33140182495117 49.93612289428711
C 57.43810272216797 49.76375961303711 51.30762481689453
N 57.711952209472656 48.44731140136719 51.28536605834961
C 53.25457000732422 42.04783248901367 53.70924377441406
C 53.93256378173828 42.03660202026367 52.47600173950195
H 53.41181945800781 41.599308013916016 51.627960205078125
C 55.218231201171875 42.60040283203125 52.33012771606445
H 55.72596740722656 42.60108947753906 51.36899948120117
C 55.79694366455078 43.34074020385742 53.430397033691406
C 53.87841796875 42.762420654296875 54.799957275390625
H 53.33507537841797 42.77280044555664 55.74135971069336
C 55.120079040527344 43.35802459716797 54.61017990112305
H 55.46781921386719 43.95033645629883 55.45268630981445
N 51.97222900390625 41.50808334350586 53.717567443847656
H 51.53546142578125 41.47174835205078 52.80872344970703
C 51.301551818847656 41.041202545166016 54.754451751708984
O 51.73295593261719 40.833187103271484 55.88459396362305
C 49.85175323486328 40.70222091674805 54.43760681152344
C 49.15782165527344 41.478519439697266 53.606380462646484
H 49.70539855957031 42.32234573364258 53.19445037841797
C 47.828094482421875 41.23210906982422 53.26655960083008
C 47.13634490966797 40.205989837646484 53.92184829711914
H 46.07646942138672 40.147735595703125 53.687644958496094
C 47.760536193847656 39.39918518066406 54.88996124267578
H 47.130287170410156 38.676856994628906 55.40240478515625
C 49.125511169433594 39.70245361328125 55.1553955078125
H 49.78337860107422 39.085350036621094 55.76199722290039
C 47.172935485839844 42.15670394897461 52.272769927978516
H 47.9442138671875 42.841033935546875 51.922428131103516
C 45.90397644042969 42.11345672607422 51.7093391418457
H 45.32831573486328 41.25188064575195 52.044349670410156
C 45.38163757324219 42.93359375 50.64488220214844
C 44.140480041503906 42.40872573852539 50.00166320800781
H 43.574859619140625 41.98799133300781 50.83563232421875
H 44.33867645263672 41.638450622558594 49.25342559814453
H 43.49836730957031 43.217647552490234 49.646976470947266
C 46.02490234375 43.983062744140625 50.16446304321289
H 46.959083557128906 44.25074005126953 50.65596389770508
C 45.70585632324219 44.76685333251953 48.97917938232422
H 44.681793212890625 44.72221755981445 48.611454010009766
C 46.7088623046875 45.293479919433594 48.2767333984375
H 47.72587585449219 45.070831298828125 48.59615707397461
C 46.60789489746094 46.060855865478516 47.1030158996582
C 47.84135437011719 45.95182800292969 46.21205139160156
H 48.442665100097656 46.86213684082031 46.16493225097656
H 48.426361083984375 45.07393264770508 46.49406051635742
H 47.458038330078125 45.8236198425293 45.197608947753906
C 45.6533203125 46.97914123535156 46.89080047607422
H 44.983245849609375 47.083213806152344 47.7429084777832
C 45.499755859375 47.7119140625 45.62676239013672
H 46.31737518310547 47.75580978393555 44.90877914428711
C 44.377769470214844 48.40066146850586 45.31557846069336
H 43.51585388183594 48.35811233520508 45.979820251464844
C 44.121009826660156 49.054443359375 44.08781814575195
H 44.92729187011719 48.931575775146484 43.3661994934082
C 43.08038330078125 49.7603759765625 43.61395263671875
C 41.87394714355469 49.90470886230469 44.508705139160156
H 41.27415466308594 50.784603118896484 44.26685333251953
H 41.159820556640625 49.08163070678711 44.43775177001953
H 42.12371063232422 50.08880615234375 45.55569839477539
C 42.98993682861328 50.21857452392578 42.1998176574707
H 43.90271759033203 50.06960678100586 41.624874114990234
C 41.96073913574219 50.78955078125 41.592933654785156
H 41.073631286621094 50.92771530151367 42.20927810668945
C 41.886192321777344 51.18279266357422 40.14388656616211
H 42.784210205078125 50.97150421142578 39.56523895263672
C 40.832801818847656 51.63673782348633 39.46971893310547
C 39.674949645996094 52.23283004760742 40.160072326660156
H 39.034339904785156 51.44917297363281 40.56990051269531
H 39.948463439941406 52.82587814331055 41.035255432128906
H 39.14704895019531 52.91407012939453 39.48947525024414
C 40.794273376464844 51.77168655395508 38.004852294921875
H 39.96648406982422 52.27916717529297 37.51175308227539
C 41.765533447265625 51.348453521728516 37.137840270996094
H 42.63929748535156 50.81948471069336 37.51553726196289
C 41.73143768310547 51.43584060668945 35.611812591552734
C 41.0335693359375 52.4287223815918 34.90323257446289
C 40.32667541503906 53.65886306762695 35.466670989990234
H 40.704017639160156 53.90781784057617 36.4607048034668
H 40.309417724609375 54.54728317260742 34.83194351196289
H 39.25025939941406 53.475135803222656 35.473228454589844
C 40.903770446777344 52.57224655151367 33.42947006225586
H 41.45439910888672 53.477455139160156 33.165138244628906
H 39.888572692871094 52.78643798828125 33.08894729614258
C 41.53246307373047 51.380184173583984 32.574031829833984
H 41.72553253173828 51.863067626953125 31.61380958557129
H 40.682395935058594 50.70856475830078 32.43700408935547
C 42.82084655761719 50.84635925292969 33.38994598388672
H 43.18126678466797 50.00059127807617 32.80067443847656
H 43.713279724121094 51.475521087646484 33.37654495239258
C 42.55952453613281 50.31288528442383 34.85963821411133
C 41.85417175292969 48.96794891357422 34.747955322265625
H 41.03428649902344 49.15049743652344 34.05015182495117
H 42.50164031982422 48.21714401245117 34.290199279785156
H 41.389251708984375 48.608253479003906 35.66824722290039
C 43.937408447265625 49.94606399536133 35.48723602294922
H 44.538169860839844 49.40961456298828 34.74982452392578
H 44.521209716796875 50.83578109741211 35.7322883605957
H 43.81476593017578 49.34890365600586 36.393226623535156
