207
Triad, Carotenoid-Porphyrin-C60
C 53.650272369384766 50.323646545410156 63.06410598754883
C 52.96232986450195 49.923797607421875 56.677833557128906
C 53.409175872802734 48.26685333251953 58.159061431884766
C 53.158016204833984 48.01714324951172 60.494056701660156
C 52.03097915649414 52.104339599609375 56.60871124267578
C 53.124629974365234 51.272987365722656 56.477867126464844
C 50.713436126708984 50.302101135253906 57.29812240600586
C 51.18080520629883 48.2694091796875 59.163726806640625
C 51.4466667175293 50.623191833496094 62.90066909790039
C 50.82819747924805 51.67132568359375 57.081031799316406
C 53.105159759521484 49.169525146484375 62.508392333984375
C 52.57290267944336 54.635337829589844 59.16157913208008
C 52.57571792602539 53.260032653808594 57.16493606567383
C 52.29755783081055 54.23961639404297 61.50441360473633
C 50.57889938354492 52.67906188964844 61.97173309326172
C 51.731266021728516 53.313438415527344 62.3473014831543
C 50.62479019165039 53.559471130371094 58.5265007019043
C 49.85667037963867 50.178916931152344 58.39571762084961
C 50.0953254699707 49.137794494628906 59.373355865478516
C 49.62913131713867 50.712249755859375 61.208744049072266
C 56.6619758605957 50.762596130371094 59.40848159790039
C 56.14741897583008 51.79060363769531 58.4587287902832
C 55.83542251586914 49.55303192138672 58.93119430541992
C 55.18852615356445 49.802642822265625 57.692054748535156
C 54.00600051879883 53.10688781738281 62.56938552856445
C 55.7400016784668 53.00939178466797 58.93210983276367
C 53.85734939575195 48.53167724609375 61.57512664794922
C 53.951297760009766 54.442832946777344 59.24431610107422
C 53.95591354370117 53.144256591796875 57.27144241333008
C 53.708255767822266 54.11359405517578 61.60810852050781
C 55.207157135009766 48.64117431640625 59.763389587402344
C 50.59418869018555 53.84645080566406 59.87467956542969
C 49.94966506958008 52.948936462402344 60.74020767211914
C 50.02888107299805 49.40138244628906 60.730506896972656
C 49.51911544799805 51.41473388671875 58.873252868652344
C 56.63119125366211 51.07935333251953 60.90126419067383
C 55.97816848754883 52.34699249267578 61.28657150268555
C 55.69157791137695 50.155799865722656 61.69970703125
C 55.116939544677734 52.20983123779297 62.432029724121094
C 50.40145492553711 51.29060363769531 62.24755096435547
C 55.35189437866211 51.1441650390625 57.468746185302734
C 55.11708450317383 48.984291076660156 61.12784194946289
C 54.95357131958008 50.85563659667969 62.67405700683594
C 54.0183219909668 48.005210876464844 59.35804748535156
C 52.72617721557617 52.647674560546875 63.02717971801758
C 55.5878791809082 53.303001403808594 60.304908752441406
C 54.659481048583984 53.72990417480469 58.31373596191406
C 53.97654342651367 49.210960388183594 57.32041549682617
C 54.32485580444336 51.859901428222656 56.824684143066406
C 49.4090461730957 51.76042938232422 60.2254753112793
C 54.5347785949707 54.17341613769531 60.48638916015625
C 52.6264533996582 51.25614929199219 63.294776916503906
C 51.76325607299805 49.448143005371094 57.139434814453125
C 52.02132797241211 48.398658752441406 58.03607177734375
C 51.76430892944336 48.04881286621094 60.40601348876953
C 51.7196159362793 49.32976531982422 62.420494079589844
C 51.89436721801758 53.99334716796875 58.098602294921875
C 51.72781753540039 54.55236053466797 60.28074264526367
C 51.06386184692383 48.78266143798828 61.35274887084961
C 50.116146087646484 52.33861541748047 58.010398864746094
C 58.14906692504883 50.708091735839844 59.11576843261719
N 58.9249153137207 50.97998046875 60.10606384277344
C 58.11978530883789 51.14735412597656 61.3405876159668
H 58.35538864135742 52.12842559814453 61.7608757019043
H 58.403560638427734 50.31969451904297 61.995643615722656
C 59.38972854614258 48.678077697753906 55.58879470825195
C 59.048404693603516 48.03254699707031 56.74986267089844
H 59.16447067260742 46.95295715332031 56.80080032348633
C 58.77829360961914 48.75690460205078 57.88664245605469
H 58.55490493774414 48.30506896972656 58.84972381591797
C 58.67452621459961 50.12555694580078 57.924285888671875
C 59.20334243774414 50.093605041503906 55.532470703125
H 59.39243698120117 50.637939453125 54.61077880859375
C 58.79935073852539 50.800323486328125 56.691471099853516
H 58.45124435424805 51.829872131347656 56.67106628417969
C 59.9748649597168 47.95447540283203 54.36709213256836
C 59.7490348815918 46.51007843017578 54.36594772338867
C 60.23512649536133 45.4957275390625 55.1190071105957
H 60.87277603149414 45.59386444091797 55.99135971069336
C 59.71034622192383 44.24443817138672 54.6616096496582
H 59.70112228393555 43.278228759765625 55.15513610839844
C 58.78355026245117 44.55028533935547 53.683799743652344
N 58.98483657836914 45.847679138183594 53.37229537963867
H 58.4946403503418 46.29534149169922 52.609771728515625
C 57.91913986206055 43.734375 52.883975982666016
H 57.634395599365234 42.80854034423828 53.38164520263672
C 57.24473190307617 44.00401306152344 51.72220230102539
C 55.885738372802734 43.675872802734375 51.59579086303711
H 55.21163558959961 43.17021942138672 52.279258728027344
C 55.55022048950195 44.25756072998047 50.36650466918945
H 54.5962028503418 44.21045684814453 49.851863861083984
C 56.68204879760742 44.895042419433594 49.80752182006836
N 57.69392013549805 44.72137451171875 50.652225494384766
C 56.76606369018555 45.749488830566406 48.59027862548828
C 57.62983322143555 46.80926513671875 48.39116287231445
C 58.10184097290039 47.436546325683594 47.17881393432617
H 57.94377517700195 47.12885284423828 46.15043640136719
C 59.11453628540039 48.323516845703125 47.58661651611328
H 59.86854934692383 48.82952880859375 46.992774963378906
C 59.25481033325195 48.36384582519531 49.028995513916016
N 58.38077926635742 47.416893005371094 49.32847595214844
H 58.14326095581055 47.359214782714844 50.309486389160156
C 60.08271408081055 49.1392822265625 49.79216766357422
H 60.64109420776367 49.89641571044922 49.24363708496094
C 60.42686080932617 49.137969970703125 51.15473937988281
C 61.348262786865234 49.94989776611328 51.89077377319336
H 62.04523849487305 50.57811737060547 51.34598159790039
C 61.30647659301758 49.57518768310547 53.17652893066406
H 61.7763786315918 50.06536102294922 54.02278137207031
C 60.3480339050293 48.63391876220703 53.27483367919922
N 59.93003463745117 48.360313415527344 52.03843688964844
C 53.984012603759766 44.81309509277344 45.385589599609375
C 54.61943435668945 46.057945251464844 45.39876937866211
H 54.49887466430664 46.82331085205078 44.63636779785156
C 55.52712631225586 46.276649475097656 46.41316223144531
H 55.77200698852539 47.32025146484375 46.59342956542969
C 55.84384536743164 45.37390899658203 47.437259674072266
C 54.17062759399414 43.91778564453125 46.398475646972656
H 53.758724212646484 42.92174530029297 46.25776290893555
C 55.14616775512695 44.17494201660156 47.377872467041016
H 55.48163986206055 43.32469940185547 47.96619415283203
N 53.185848236083984 44.44075012207031 44.24699783325195
H 53.34415817260742 43.50444793701172 43.905879974365234
C 52.40687942504883 45.18138122558594 43.43574523925781
O 51.87021255493164 46.21185302734375 43.717689514160156
C 51.99557113647461 44.50865936279297 42.1524772644043
C 50.814632415771484 44.735595703125 41.524600982666016
H 50.05878829956055 45.314613342285156 42.04901123046875
C 50.45943832397461 44.13189697265625 40.31953811645508
C 51.350154876708984 43.28761291503906 39.74919891357422
H 50.946773529052734 42.79194641113281 38.86989974975586
C 52.61186599731445 43.147979736328125 40.2458610534668
H 53.22489547729492 42.53521728515625 39.58989334106445
C 52.920955657958984 43.78955078125 41.41301345825195
H 53.9284553527832 43.74983215332031 41.81914520263672
C 49.129085540771484 44.47212219238281 39.72932434082031
H 48.64327621459961 45.22539520263672 40.347782135009766
C 48.510868072509766 43.92176055908203 38.657249450683594
H 49.07169723510742 43.176734924316406 38.09481430053711
C 47.13681411743164 44.129638671875 38.10661315917969
C 46.68861770629883 42.935890197753906 37.259742736816406
H 45.8802375793457 43.20069122314453 36.57499313354492
H 46.2715950012207 42.204795837402344 37.95548629760742
H 47.49887466430664 42.56147766113281 36.630653381347656
C 46.41250228881836 45.242095947265625 38.335777282714844
H 46.82498550415039 45.96867370605469 39.034244537353516
C 45.1207389831543 45.58905792236328 37.86212921142578
H 44.569705963134766 44.930564880371094 37.192298889160156
C 44.505428314208984 46.67949676513672 38.29508590698242
H 45.06303024291992 47.198448181152344 39.07334899902344
C 43.086421966552734 47.043365478515625 38.01774597167969
C 42.44985580444336 46.53361511230469 36.78523635864258
H 43.10892105102539 46.26905059814453 35.95572280883789
H 41.70853805541992 45.73883056640625 36.89121627807617
H 41.85090255737305 47.36054229736328 36.3980598449707
C 42.35733413696289 47.74871063232422 38.873043060302734
H 42.82175064086914 48.188194274902344 39.75457763671875
C 40.99998092651367 48.07011413574219 38.77080154418945
H 40.41274642944336 47.33561706542969 38.22162628173828
C 40.32375717163086 49.001991271972656 39.466575622558594
H 40.87423324584961 49.614166259765625 40.17940902709961
C 38.851985931396484 49.09895324707031 39.395751953125
H 38.36850357055664 48.41249084472656 38.70226287841797
C 38.01853561401367 49.80986022949219 40.168113708496094
C 38.45827102661133 50.737403869628906 41.271751403808594
H 39.53823471069336 50.828041076660156 41.40565490722656
H 37.897029876708984 51.653663635253906 41.07698059082031
H 38.11922836303711 50.27118682861328 42.199195861816406
C 36.54752731323242 49.949684143066406 39.93093490600586
H 35.985958099365234 50.61634826660156 40.583717346191406
C 35.67445755004883 49.457847595214844 38.987998962402344
H 36.0633430480957 48.73683166503906 38.27048110961914
C 34.29313278198242 49.78135681152344 38.89078903198242
H 33.920169830322266 50.353919982910156 39.73871994018555
C 33.54179000854492 49.74150848388672 37.82558822631836
C 34.019832611083984 49.265716552734375 36.47817611694336
H 35.060482025146484 49.59648132324219 36.46723556518555
H 33.99282455444336 48.185447692871094 36.32080841064453
H 33.56083297729492 49.804664611816406 35.6467170715332
C 32.18247604370117 50.20142364501953 37.82683563232422
H 31.980892181396484 50.88041687011719 38.65403366088867
C 31.220531463623047 49.965118408203125 36.946712493896484
H 31.56952667236328 49.29792785644531 36.15996170043945
C 29.846309661865234 50.506988525390625 36.84597396850586
C 28.959884643554688 50.56121063232422 37.85918045043945
C 29.190685272216797 50.07939147949219 39.26785659790039
H 29.62323760986328 49.07788848876953 39.31629180908203
H 29.834827423095703 50.7369384765625 39.855377197265625
H 28.330150604248047 50.00904846191406 39.936431884765625
C 27.52499771118164 50.940162658691406 37.8510627746582
H 27.43767547607422 51.85545349121094 38.44020080566406
H 26.965843200683594 50.163246154785156 38.376625061035156
C 26.969253540039062 51.12804412841797 36.45201110839844
H 26.02481460571289 51.67622375488281 36.45245361328125
H 26.799102783203125 50.11344909667969 36.08580780029297
C 28.078739166259766 51.804908752441406 35.588348388671875
H 27.703140258789062 51.94947052001953 34.573219299316406
H 28.200199127197266 52.7744140625 36.07597351074219
C 29.32410430908203 50.974700927734375 35.4298210144043
C 28.949443817138672 49.89659118652344 34.363765716552734
H 29.845088958740234 49.31416320800781 34.13779830932617
H 28.19646453857422 49.18267822265625 34.70406723022461
H 28.553653717041016 50.36827850341797 33.46192169189453
C 30.327617645263672 51.87743377685547 34.73823547363281
H 31.32870101928711 51.46553039550781 34.59458541870117
H 30.114971160888672 52.216156005859375 33.72210693359375
H 30.530296325683594 52.73991394042969 35.37660217285156
