207
Triad, Carotenoid-Porphyrin-C60
C 48.0322151184082 57.5992546081543 45.53794479370117
C 53.727787017822266 59.46419143676758 48.104007720947266
C 53.1739387512207 57.86250686645508 46.64099884033203
C 51.54597091674805 57.19812774658203 45.01425552368164
C 52.66123580932617 61.423248291015625 48.90421676635742
C 53.2124137878418 60.16851043701172 49.20418930053711
C 53.325557708740234 61.31098175048828 46.563743591308594
C 52.68624496459961 59.2907600402832 44.721763610839844
C 48.4459114074707 59.46218490600586 44.396705627441406
C 52.791316986083984 62.017032623291016 47.63581466674805
C 49.176815032958984 57.37166213989258 44.76451110839844
C 49.16965866088867 61.97490310668945 49.421791076660156
C 51.550601959228516 61.633975982666016 49.70612716674805
C 47.49899673461914 61.29970932006836 47.84151840209961
C 48.139957427978516 61.58339309692383 45.51130676269531
C 47.302059173583984 60.987525939941406 46.47985076904297
C 50.59945297241211 63.00111770629883 47.93478775024414
C 52.54347610473633 61.552303314208984 45.429954528808594
C 52.22910690307617 60.538631439208984 44.50835418701172
C 50.0427360534668 61.35371398925781 44.27484130859375
C 50.52278518676758 56.30532455444336 49.5311279296875
C 50.753116607666016 57.68949508666992 50.27055358886719
C 51.68751907348633 56.35432052612305 48.5238151550293
C 52.58042526245117 57.400062561035156 48.93827819824219
C 47.01054000854492 59.07403564453125 47.66037368774414
C 49.749637603759766 58.642189025878906 50.528167724609375
C 50.25654220581055 56.67378616333008 45.285709381103516
C 48.96274185180664 60.76510238647461 50.10956954956055
C 51.33687210083008 60.44635009765625 50.339744567871094
C 47.252750396728516 60.15961837768555 48.52116012573242
C 51.48713302612305 56.25178909301758 47.07615280151367
C 49.326961517333984 62.87205123901367 47.30583953857422
C 49.13711166381836 62.5265007019043 45.93693542480469
C 50.97530746459961 60.42778396606445 43.86777114868164
C 51.5501823425293 62.431678771972656 45.80653381347656
C 49.081966400146484 56.242027282714844 48.825443267822266
C 48.21712875366211 57.536460876464844 49.024749755859375
C 49.07624435424805 56.22294616699219 47.30866241455078
C 47.53403091430664 57.75530242919922 47.84343338012695
C 48.7397575378418 60.84420394897461 44.48661804199219
C 52.05092239379883 58.14025115966797 49.9829216003418
C 50.22915267944336 56.105201721191406 46.55316925048828
C 48.05136489868164 57.00437927246094 46.83760070800781
C 52.29225540161133 56.95948028564453 46.213096618652344
C 47.050899505615234 59.605934143066406 46.38212966918945
C 48.5216178894043 58.58198928833008 49.93617630004883
C 50.046085357666016 60.01008605957031 50.571495056152344
C 53.35079574584961 58.11509704589844 47.9735221862793
C 52.37740707397461 59.543060302734375 50.122623443603516
C 50.29963302612305 62.35715866088867 45.22249221801758
C 48.024044036865234 59.86766052246094 49.66416931152344
C 47.60335159301758 58.88264465332031 45.321014404296875
C 53.73671340942383 60.01545715332031 46.826866149902344
C 53.431095123291016 59.02176284790039 45.90003204345703
C 51.760738372802734 58.33795928955078 44.272186279296875
C 49.42856216430664 58.55607604980469 44.08282470703125
C 50.485897064208984 62.39238739013672 49.21635437011719
C 48.49728012084961 62.2187614440918 48.23745346069336
C 50.663455963134766 59.05588150024414 43.78695297241211
C 51.70344924926758 62.68446350097656 47.17086410522461
C 50.455745697021484 55.151771545410156 50.41576385498047
N 49.360408782958984 54.51106262207031 50.42325973510742
C 48.414669036865234 55.067752838134766 49.473777770996094
H 47.48569869995117 55.19332504272461 50.035831451416016
H 48.26920700073242 54.26412582397461 48.74736785888672
C 53.01736068725586 54.68490982055664 53.873779296875
C 51.6532096862793 54.9661979675293 54.0030403137207
H 51.21723556518555 54.93889617919922 54.9984016418457
C 50.85429000854492 55.17674255371094 52.88384246826172
H 49.79116439819336 55.37226486206055 52.99831771850586
C 51.34701919555664 55.03251266479492 51.591766357421875
C 53.43568801879883 54.51675033569336 52.570770263671875
H 54.47764205932617 54.31724166870117 52.333919525146484
C 52.68973159790039 54.78145217895508 51.46598815917969
H 53.02248001098633 54.57431411743164 50.45211410522461
C 53.878849029541016 54.5103645324707 55.128665924072266
C 53.28512191772461 54.352516174316406 56.42201614379883
C 52.45759201049805 55.182830810546875 57.124271392822266
H 52.09675979614258 56.17127227783203 56.859683990478516
C 52.082828521728516 54.52708053588867 58.32248306274414
H 51.57767868041992 54.93458938598633 59.19196701049805
C 52.65267562866211 53.263282775878906 58.25783920288086
N 53.28104019165039 53.16119384765625 57.06338882446289
H 53.559871673583984 52.29046630859375 56.63187789916992
C 52.60306930541992 52.1443977355957 59.20383071899414
H 51.632694244384766 52.15934753417969 59.6978645324707
C 53.43357467651367 51.061279296875 59.2790412902832
C 53.360172271728516 50.19596481323242 60.36586380004883
H 52.80281448364258 50.42784118652344 61.26742172241211
C 54.15841293334961 49.16718673706055 60.06132125854492
H 54.321285247802734 48.26091384887695 60.63522720336914
C 54.63754653930664 49.39979934692383 58.76826858520508
N 54.32746505737305 50.58405685424805 58.338809967041016
C 55.4990119934082 48.51088333129883 57.91714096069336
C 56.47945785522461 48.95661926269531 57.0310173034668
C 57.81789016723633 48.53264617919922 56.687747955322266
H 58.25973129272461 47.649051666259766 57.1363639831543
C 58.370662689208984 49.44160842895508 55.79390335083008
H 59.319210052490234 49.29874038696289 55.28689193725586
C 57.548343658447266 50.57589340209961 55.72145462036133
N 56.52217483520508 50.200469970703125 56.48357009887695
H 55.74387741088867 50.82062530517578 56.66184616088867
C 57.79987716674805 51.705204010009766 55.07516860961914
H 58.80398178100586 51.72858810424805 54.6542854309082
C 56.960147857666016 52.881771087646484 54.88370132446289
C 57.23939895629883 54.05555725097656 54.09621047973633
H 58.14365768432617 54.22818374633789 53.52198028564453
C 56.09232711791992 54.752201080322266 54.14859390258789
H 55.8979377746582 55.70680236816406 53.6709098815918
C 55.17684555053711 54.08540344238281 54.87754440307617
N 55.74209213256836 52.975467681884766 55.373409271240234
C 53.795597076416016 44.5771369934082 57.1771354675293
C 55.000003814697266 44.92456817626953 56.56528091430664
H 55.34883499145508 44.260597229003906 55.77849197387695
C 55.50648880004883 46.18764877319336 56.874935150146484
H 56.45167922973633 46.41271209716797 56.387569427490234
C 54.93986892700195 47.14435577392578 57.72013473510742
C 53.19577407836914 45.5042610168457 58.02542495727539
H 52.301143646240234 45.16946029663086 58.544193267822266
C 53.73544692993164 46.74018859863281 58.31467819213867
H 53.11178207397461 47.44728469848633 58.85563278198242
N 53.107906341552734 43.44513702392578 56.78628158569336
H 53.57191848754883 42.611324310302734 57.114200592041016
C 52.10494613647461 43.34864044189453 55.9241828918457
O 51.67811965942383 44.26239013671875 55.26344680786133
C 51.453617095947266 41.96290969848633 55.82327651977539
C 50.88447189331055 41.47023010253906 54.69137191772461
H 50.85991287231445 42.14366912841797 53.838462829589844
C 50.2994499206543 40.21173858642578 54.6632194519043
C 50.4023323059082 39.427242279052734 55.84073257446289
H 49.99338912963867 38.42167663574219 55.78438186645508
C 50.98154830932617 39.91533279418945 57.000972747802734
H 50.840213775634766 39.392581939697266 57.943485260009766
C 51.42000198364258 41.168212890625 56.9954948425293
H 51.92446517944336 41.578575134277344 57.866519927978516
C 49.52224349975586 39.78770065307617 53.497100830078125
H 49.388980865478516 40.57670974731445 52.75843811035156
C 48.82400894165039 38.711090087890625 53.3124885559082
H 48.861873626708984 37.85922622680664 53.98984146118164
C 47.82102584838867 38.52646255493164 52.24584197998047
C 47.00203323364258 37.2662353515625 52.29234313964844
H 47.25761032104492 36.52434539794922 51.53291320800781
H 45.9360237121582 37.49151611328125 52.21934127807617
H 47.25959396362305 36.793582916259766 53.242462158203125
C 47.62869644165039 39.34125518798828 51.186309814453125
H 48.257991790771484 40.21133041381836 51.00498580932617
C 46.68882369995117 39.243492126464844 50.093624114990234
H 46.46352767944336 38.210357666015625 49.833255767822266
C 46.19639205932617 40.27898406982422 49.40840148925781
H 46.38729476928711 41.31180191040039 49.69609832763672
C 45.35898208618164 40.16219711303711 48.24357604980469
C 44.3559455871582 41.25979995727539 48.19950866699219
H 44.585208892822266 41.760841369628906 47.256717681884766
H 43.298519134521484 41.00331497192383 48.29191207885742
H 44.49546432495117 42.10556411743164 48.876033782958984
C 45.395633697509766 39.28008270263672 47.26825714111328
H 46.118839263916016 38.47392272949219 47.38228988647461
C 44.63302993774414 39.27642822265625 46.04509353637695
H 44.133304595947266 40.21088409423828 45.794132232666016
C 44.56956100463867 38.1982307434082 45.23830795288086
H 45.121524810791016 37.28545379638672 45.457618713378906
C 43.832828521728516 38.09049987792969 43.9802360534668
H 42.89079666137695 38.627323150634766 43.87860870361328
C 44.27022933959961 37.3210334777832 42.943355560302734
C 45.53896713256836 36.537315368652344 42.86845779418945
H 45.89652633666992 36.247013092041016 41.87834167480469
H 46.346927642822266 37.17095947265625 43.24015426635742
H 45.432804107666016 35.64048385620117 43.48237228393555
C 43.46133804321289 37.09030532836914 41.72334671020508
H 44.0116081237793 36.6359977722168 40.90070343017578
C 42.12625503540039 37.174713134765625 41.63287353515625
H 41.60744094848633 37.649208068847656 42.464500427246094
C 41.53792953491211 37.20243835449219 40.29005432128906
H 42.078861236572266 36.63691711425781 39.53274917602539
C 40.61942672729492 38.01414108276367 39.83412170410156
C 40.13264846801758 39.16899871826172 40.682716369628906
H 39.7984733581543 40.01112747192383 40.073116302490234
H 39.199485778808594 38.92012023925781 41.19234848022461
H 40.938907623291016 39.557674407958984 41.30829620361328
C 40.14213943481445 37.93378829956055 38.46009063720703
H 40.822879791259766 37.81056213378906 37.61906051635742
C 38.86288070678711 38.23939895629883 38.22223663330078
H 38.214962005615234 38.4009895324707 39.08247375488281
C 38.27423095703125 38.28068923950195 36.88568115234375
C 37.74482727050781 37.210105895996094 36.25508499145508
C 37.66753387451172 35.89405822753906 36.92582321166992
H 37.32077407836914 35.985565185546875 37.957252502441406
H 36.87074661254883 35.29469680786133 36.48044967651367
H 38.69129943847656 35.52098846435547 36.997840881347656
C 37.07011413574219 37.25822448730469 34.88597869873047
H 36.023338317871094 37.151222229003906 35.17800521850586
H 37.33036804199219 36.31698989868164 34.39729309082031
C 37.536277770996094 38.4598274230957 34.051666259765625
H 36.88307571411133 38.456085205078125 33.17657470703125
H 38.54327392578125 38.241607666015625 33.69000244140625
C 37.449100494384766 39.70924758911133 34.87025833129883
H 37.631492614746094 40.62187194824219 34.29901885986328
H 36.429405212402344 39.8113899230957 35.2474250793457
C 38.313270568847656 39.61442184448242 36.12604522705078
C 39.661930084228516 40.033939361572266 35.64382553100586
H 39.70391082763672 40.98039245605469 35.10076141357422
H 40.38327407836914 40.122596740722656 36.45884704589844
H 40.09201431274414 39.3560791015625 34.90355682373047
C 37.98054504394531 40.856327056884766 36.99299240112305
H 38.80437469482422 41.0897216796875 37.67070770263672
H 37.93513870239258 41.69181442260742 36.29130554199219
H 36.97700119018555 40.7718391418457 37.4151725769043
