207
Triad, Carotenoid-Porphyrin-C60
C 54.93113327026367 38.577545166015625 57.22605895996094
C 56.05892562866211 41.814762115478516 51.93024444580078
C 57.193721771240234 40.157535552978516 52.665802001953125
C 56.87190628051758 38.2890510559082 54.20136260986328
C 53.92531204223633 42.940757751464844 51.95873260498047
C 55.30698013305664 42.97782516479492 52.162872314453125
C 54.11716842651367 40.650630950927734 51.19761657714844
C 55.49544143676758 38.46678924560547 52.257041931152344
C 53.33041763305664 37.67591094970703 55.888343811035156
C 53.30897903442383 41.749595642089844 51.48027038574219
C 55.48818588256836 37.88971710205078 56.15483093261719
C 51.96194839477539 43.12633514404297 54.907310485839844
C 53.32797622680664 43.60329055786133 52.98931884765625
C 51.62821578979492 41.254756927490234 56.47191619873047
C 51.40040969848633 39.10634994506836 55.34257507324219
C 51.671016693115234 39.848934173583984 56.45714569091797
C 51.57405471801758 41.87989807128906 53.071044921875
C 53.46987533569336 39.48485565185547 51.587074279785156
C 54.11674118041992 38.34867477416992 52.101219177246094
C 52.4228630065918 38.034690856933594 53.68672180175781
C 57.50247573852539 42.46648406982422 56.16087341308594
C 56.47671890258789 43.46916198730469 55.522850036621094
C 57.85379409790039 41.59226608276367 54.95756530761719
C 57.4051628112793 42.21786880493164 53.80817413330078
C 53.28902816772461 40.74473190307617 57.7347412109375
C 55.20033645629883 43.76938247680664 56.052825927734375
C 56.675540924072266 38.38728713989258 55.57036590576172
C 52.96645736694336 43.630611419677734 55.72857666015625
C 54.32048416137695 44.120296478271484 53.842063903808594
C 52.6032600402832 41.849884033203125 57.31077575683594
C 57.843082427978516 40.18112564086914 54.98021697998047
C 51.10372543334961 41.16030502319336 54.134735107421875
C 51.13322067260742 39.76533889770508 54.17912292480469
C 53.59341812133789 37.56816101074219 53.13134002685547
C 52.20396041870117 39.81458282470703 52.12940979003906
C 56.813724517822266 41.68851852416992 57.39488983154297
C 55.3369255065918 42.01456069946289 57.66014099121094
C 56.715763092041016 40.14995574951172 57.170860290527344
C 54.6107063293457 40.83802795410156 57.974754333496094
C 52.30631637573242 38.0399284362793 55.04277801513672
C 56.56645584106445 43.28511047363281 54.17424774169922
C 57.28419876098633 39.548458099365234 56.08391571044922
C 55.46745681762695 39.72266387939453 57.62773895263672
C 57.57732009887695 39.42817306518555 53.79685974121094
C 52.71677017211914 39.53074645996094 57.33606719970703
C 54.7073860168457 43.10993194580078 57.085060119628906
C 54.164920806884766 44.107215881347656 55.198631286621094
C 57.12270736694336 41.52906799316406 52.64837646484375
C 55.55312728881836 43.67484664916992 53.363502502441406
C 51.68337631225586 39.04399108886719 53.119529724121094
C 53.28532028198242 43.0128059387207 56.9359130859375
C 53.56443405151367 38.383583068847656 57.10090637207031
C 55.49431228637695 40.6878776550293 51.360496520996094
C 56.19204330444336 39.621944427490234 51.857383728027344
C 55.87831497192383 37.779972076416016 53.383453369140625
C 54.53879165649414 37.25812530517578 55.343116760253906
C 52.21162796020508 43.02830123901367 53.575836181640625
C 51.28165054321289 41.96978759765625 55.276039123535156
C 54.69282150268555 37.21720504760742 53.95319366455078
C 52.12559127807617 41.2049674987793 51.986854553222656
C 58.69307327270508 43.16297149658203 56.912078857421875
N 58.77107620239258 42.89312744140625 58.134796142578125
C 57.84638595581055 41.829017639160156 58.55425262451172
H 57.36649703979492 42.083492279052734 59.502723693847656
H 58.3863410949707 40.89442825317383 58.72642517089844
C 60.51032638549805 46.83076095581055 55.67157745361328
C 60.69265365600586 45.739952087402344 54.811431884765625
H 61.268428802490234 45.817386627197266 53.89270782470703
C 60.02518081665039 44.53224182128906 55.2318115234375
H 60.11330032348633 43.70307922363281 54.534461975097656
C 59.36478042602539 44.37394332885742 56.478248596191406
C 59.8125114440918 46.70380783081055 56.865394592285156
H 59.706356048583984 47.48520278930664 57.61354064941406
C 59.28280258178711 45.50862121582031 57.25038146972656
H 58.791378021240234 45.461143493652344 58.218788146972656
C 60.98395919799805 48.220420837402344 55.33258056640625
C 61.507015228271484 48.343502044677734 54.009300231933594
C 62.73019790649414 48.141578674316406 53.418556213378906
H 63.60909652709961 47.881744384765625 53.999290466308594
C 62.729549407958984 48.618892669677734 52.12120819091797
H 63.630130767822266 48.70775604248047 51.52265167236328
C 61.57915115356445 49.292755126953125 51.89246368408203
N 60.803585052490234 49.02206802368164 53.02960968017578
H 59.82283401489258 49.2636604309082 53.07292938232422
C 61.16160202026367 50.14174270629883 50.79457092285156
H 61.85603713989258 50.14534378051758 49.955726623535156
C 60.11050796508789 50.9926643371582 50.6622314453125
C 59.8540153503418 51.85698318481445 49.59264373779297
H 60.46823501586914 51.92875289916992 48.70112609863281
C 58.77071762084961 52.57853317260742 50.01837921142578
H 58.21920394897461 53.35734176635742 49.50212860107422
C 58.38906478881836 52.09236526489258 51.356964111328125
N 59.285831451416016 51.144893646240234 51.70836639404297
C 57.33527755737305 52.63691329956055 52.18305969238281
C 57.51449203491211 52.9766731262207 53.524696350097656
C 57.22085952758789 54.19943618774414 54.230438232421875
H 56.75962448120117 55.077518463134766 53.79058837890625
C 57.72005844116211 54.06403732299805 55.49199676513672
H 57.70478439331055 54.824222564697266 56.266029357910156
C 58.411861419677734 52.80710983276367 55.67890930175781
N 58.1158561706543 52.216976165771484 54.451622009277344
H 58.45094680786133 51.267520904541016 54.36016082763672
C 59.22318649291992 52.43385696411133 56.70079040527344
H 59.254459381103516 53.20237350463867 57.471717834472656
C 59.8951301574707 51.146663665771484 56.911643981933594
C 60.73258590698242 50.59054183959961 57.95787048339844
H 61.04047775268555 51.11454391479492 58.85667419433594
C 61.25458908081055 49.46158218383789 57.3988037109375
H 61.977909088134766 48.81327819824219 57.88227844238281
C 60.71073532104492 49.253570556640625 56.16156768798828
N 59.881893157958984 50.2486457824707 55.8941650390625
C 53.22359085083008 52.5496711730957 50.77606201171875
C 53.505672454833984 52.9614372253418 52.052772521972656
H 52.75229263305664 53.432552337646484 52.67890167236328
C 54.88662338256836 52.93295669555664 52.49298095703125
H 55.121402740478516 53.26467514038086 53.50115203857422
C 55.96360397338867 52.59133529663086 51.63645935058594
C 54.2615852355957 52.158634185791016 49.928871154785156
H 53.97548294067383 51.93809127807617 48.90364074707031
C 55.615230560302734 52.18167495727539 50.34516906738281
H 56.42232131958008 51.93722915649414 49.65929412841797
N 51.9046745300293 52.85458755493164 50.36254119873047
H 51.3350715637207 53.41897201538086 50.974998474121094
C 51.2120475769043 52.30788803100586 49.319915771484375
O 51.798526763916016 51.74031448364258 48.43287658691406
C 49.71780014038086 52.57058334350586 49.19712829589844
C 48.99356460571289 52.494998931884766 47.959983825683594
H 49.57406234741211 52.182308197021484 47.095794677734375
C 47.62730026245117 52.61149215698242 47.942169189453125
C 46.953182220458984 52.95170211791992 49.127349853515625
H 45.878597259521484 53.11079788208008 49.08812713623047
C 47.66667556762695 53.168155670166016 50.29216003417969
H 47.02534103393555 53.397701263427734 51.139259338378906
C 49.03226089477539 53.0068244934082 50.297332763671875
H 49.42275619506836 52.94020462036133 51.30957794189453
C 46.9338264465332 52.30678939819336 46.647430419921875
H 47.6380729675293 52.13016128540039 45.835792541503906
C 45.597103118896484 52.095401763916016 46.319007873535156
H 44.844120025634766 52.271297454833984 47.0858154296875
C 45.038509368896484 51.869197845458984 44.99299621582031
C 45.89683151245117 51.73186111450195 43.82916259765625
H 46.83830642700195 51.233768463134766 44.06996154785156
H 46.15164566040039 52.67295455932617 43.33735656738281
H 45.53531265258789 51.00065994262695 43.10313415527344
C 43.673519134521484 51.93039321899414 44.787078857421875
H 42.999080657958984 52.12727737426758 45.619117736816406
C 42.988033294677734 52.00056838989258 43.489288330078125
H 43.58134841918945 52.242374420166016 42.60870361328125
C 41.65663528442383 52.062747955322266 43.428955078125
H 41.14040756225586 51.888309478759766 44.371826171875
C 40.73878860473633 52.366268157958984 42.32026672363281
C 41.19260025024414 52.431880950927734 40.884456634521484
H 40.99457931518555 51.492374420166016 40.36428451538086
H 40.87763595581055 53.35776138305664 40.398643493652344
H 42.27688217163086 52.56105422973633 40.87360382080078
C 39.47602462768555 52.6966438293457 42.57231903076172
H 39.15669631958008 52.77164077758789 43.610748291015625
C 38.44382095336914 52.86091232299805 41.58412551879883
H 38.72697067260742 52.75381088256836 40.538047790527344
C 37.15275192260742 52.92042922973633 41.97383117675781
H 36.89485549926758 52.87509536743164 43.0308837890625
C 36.06095504760742 52.8957633972168 41.05900955200195
H 36.418827056884766 53.071292877197266 40.04557800292969
C 34.72867965698242 52.95944595336914 41.21201705932617
C 34.0536994934082 52.86393356323242 42.544944763183594
H 33.41769027709961 51.97819137573242 42.48656463623047
H 34.82609176635742 52.84605026245117 43.31666564941406
H 33.417537689208984 53.74879837036133 42.613990783691406
C 33.85414505004883 53.143070220947266 40.02206802368164
H 34.35379409790039 53.3637580871582 39.079959869384766
C 32.48685836791992 53.20219039916992 39.99637985229492
H 31.86448860168457 52.97269058227539 40.86003875732422
C 31.755990982055664 53.660587310791016 38.79567337036133
H 32.402645111083984 53.98544692993164 37.98189926147461
C 30.46220588684082 53.72917556762695 38.4703369140625
C 29.4141788482666 53.49348831176758 39.44463348388672
H 28.553712844848633 53.03547286987305 38.952415466308594
H 29.720544815063477 52.74008560180664 40.17332458496094
H 29.194307327270508 54.46786880493164 39.88588333129883
C 29.95212745666504 54.1876335144043 37.19453048706055
H 28.8663272857666 54.11201095581055 37.159236907958984
C 30.643808364868164 54.62717056274414 36.137210845947266
H 31.731508255004883 54.6732292175293 36.163856506347656
C 30.08738136291504 55.22429275512695 34.94684600830078
C 28.927377700805664 55.99885940551758 34.86644744873047
C 28.037668228149414 56.49708938598633 36.07164764404297
H 27.93980598449707 57.58181381225586 35.99248123168945
H 27.04145622253418 56.0505485534668 36.09660720825195
H 28.479448318481445 56.33125686645508 37.05643081665039
C 28.276216506958008 56.47895431518555 33.55107498168945
H 27.86187171936035 57.464298248291016 33.77442169189453
H 27.489599227905273 55.7232551574707 33.49989318847656
C 29.22246742248535 56.52309036254883 32.386749267578125
H 29.9885196685791 57.26646041870117 32.617027282714844
H 28.77531623840332 56.71431350708008 31.409019470214844
C 29.911645889282227 55.1657600402832 32.28125
H 29.070390701293945 54.4701042175293 32.252593994140625
H 30.495737075805664 55.08161544799805 31.36243438720703
C 30.69834327697754 54.864070892333984 33.54658126831055
C 31.003068923950195 53.38656997680664 33.515724182128906
H 31.75181770324707 53.15097427368164 34.2748908996582
H 30.147111892700195 52.82223129272461 33.89166259765625
H 31.390451431274414 53.02534103393555 32.56078338623047
C 32.0755729675293 55.59140396118164 33.449886322021484
H 32.553157806396484 55.29643630981445 32.51321029663086
H 31.92540168762207 56.667171478271484 33.56237030029297
H 32.6548957824707 55.24301528930664 34.3074836730957
