207
Triad, Carotenoid-Porphyrin-C60
C 37.46644973754883 39.472721099853516 38.43436050415039
C 35.18208312988281 43.401119232177734 42.93034362792969
C 36.6491813659668 43.864871978759766 41.37785720825195
C 37.323081970214844 42.9788703918457 39.28044509887695
C 33.4759521484375 41.86417770385742 43.45455551147461
C 34.66794967651367 42.45883560180664 43.77335739135742
C 33.24350357055664 43.36221694946289 41.480918884277344
C 35.171363830566406 43.7928352355957 39.55747985839844
C 35.4283332824707 39.9069709777832 37.58075714111328
C 32.780113220214844 42.36020278930664 42.30074691772461
C 37.36989974975586 40.8232536315918 38.14381790161133
C 33.463897705078125 38.3919563293457 42.75305938720703
C 33.50086212158203 40.53249740600586 43.803958892822266
C 34.19171905517578 37.59328842163086 40.56422805786133
C 33.48350143432617 38.95354080200195 38.69001770019531
C 34.3276252746582 37.972293853759766 39.227603912353516
C 32.19526672363281 40.017635345458984 41.85218048095703
C 32.9647216796875 43.02268600463867 40.179420471191406
C 33.90416717529297 43.27908706665039 39.17301940917969
C 33.352718353271484 41.13100051879883 38.132694244384766
C 38.78239822387695 40.51108169555664 42.99349594116211
C 37.562255859375 40.28935623168945 43.83909606933594
C 38.44757080078125 41.91561508178711 42.46369552612305
C 37.376678466796875 42.44486618041992 43.1468391418457
C 36.362186431884766 37.60004806518555 40.12403106689453
C 36.79941940307617 39.132076263427734 43.73163604736328
C 37.92559814453125 41.762691497802734 39.001529693603516
C 34.745094299316406 38.163082122802734 43.26679611206055
C 34.779022216796875 40.34282302856445 44.34504318237305
C 35.43996810913086 37.314754486083984 41.10283660888672
C 38.46962356567383 42.25120162963867 41.10825729370117
C 32.357906341552734 39.09492874145508 40.84146499633789
C 32.5369987487793 39.538211822509766 39.484535217285156
C 34.09889602661133 42.2721061706543 38.20059585571289
C 32.211090087890625 41.84114456176758 40.20204162597656
C 38.976173400878906 39.520076751708984 41.781917572021484
C 37.968753814697266 38.40214157104492 41.757171630859375
C 38.92171859741211 40.05070877075195 40.32478332519531
C 37.57844161987305 38.14963150024414 40.43932342529297
C 34.0710334777832 39.94624710083008 37.83993911743164
C 36.85677719116211 41.49258041381836 44.040245056152344
C 38.729949951171875 41.3884391784668 40.067970275878906
C 38.20551681518555 39.122432708740234 39.55832290649414
C 37.597572326660156 43.20803451538086 40.61586380004883
C 35.67256546020508 37.98515701293945 38.99201583862305
C 36.99073791503906 38.19624710083008 42.736698150634766
C 35.41450119018555 39.152462005615234 44.04802703857422
C 36.513702392578125 43.40396499633789 42.64346694946289
C 35.502864837646484 41.499881744384766 44.308345794677734
C 32.419105529785156 40.897762298583984 39.138553619384766
C 35.74628829956055 37.59798812866211 42.4296989440918
C 36.272281646728516 38.891109466552734 38.1209716796875
C 34.51237487792969 43.92457962036133 41.84269332885742
C 35.439937591552734 44.21059799194336 40.84682846069336
C 36.09061050415039 43.160465240478516 38.745845794677734
C 36.14071273803711 41.10922622680664 37.569252014160156
C 32.884803771972656 39.6317253112793 43.00505828857422
C 33.185081481933594 38.12014389038086 41.375205993652344
C 35.46277618408203 42.29014205932617 37.88479232788086
C 32.07118225097656 41.40537643432617 41.53313064575195
C 40.12494659423828 40.395511627197266 43.68708038330078
N 40.86747360229492 39.498172760009766 43.25722122192383
C 40.34922409057617 38.876224517822266 42.049678802490234
H 40.357601165771484 37.794063568115234 42.203033447265625
H 40.99490737915039 39.13203811645508 41.20569610595703
C 40.434959411621094 41.88511276245117 47.722198486328125
C 40.850860595703125 40.60628890991211 47.420928955078125
H 41.42902755737305 40.06478500366211 48.165283203125
C 40.92887496948242 40.16233444213867 46.07579040527344
H 41.3131103515625 39.18862533569336 45.7828369140625
C 40.40740203857422 40.972660064697266 45.036170959472656
C 40.09135437011719 42.72084426879883 46.66094970703125
H 39.8591194152832 43.77009201049805 46.82441329956055
C 40.024017333984375 42.27632522583008 45.353050231933594
H 39.48257064819336 42.915340423583984 44.66018295288086
C 40.44593048095703 42.38724899291992 49.17020034790039
C 40.88535690307617 41.44686508178711 50.18841552734375
C 40.62619400024414 40.10428237915039 50.39577102661133
H 39.91743469238281 39.51680374145508 49.82152557373047
C 41.301979064941406 39.70853042602539 51.5269775390625
H 41.305294036865234 38.69968032836914 51.92626953125
C 41.96530532836914 40.77608871459961 52.07526779174805
N 41.84966278076172 41.713504791259766 51.12558364868164
H 42.459083557128906 42.52017593383789 51.12696075439453
C 42.690216064453125 40.8828239440918 53.316368103027344
H 43.00039291381836 39.97587966918945 53.833251953125
C 43.41577911376953 42.041873931884766 53.73185348510742
C 43.979644775390625 42.087703704833984 55.00579833984375
H 44.013614654541016 41.25822830200195 55.70439910888672
C 44.50628662109375 43.3229866027832 55.125274658203125
H 44.964202880859375 43.772037506103516 56.000431060791016
C 44.38931655883789 44.01105880737305 53.91548156738281
N 43.64921188354492 43.26107406616211 53.07975769042969
C 44.824981689453125 45.3983268737793 53.51971435546875
C 43.94841003417969 46.22025680541992 52.95418167114258
C 43.653743743896484 47.58634567260742 53.3598747253418
H 44.11979293823242 48.14909744262695 54.16195297241211
C 42.51164627075195 47.95351791381836 52.72529602050781
H 41.86399459838867 48.81801223754883 52.82737731933594
C 42.12003707885742 46.93062210083008 51.85395431518555
N 43.04384994506836 45.968814849853516 51.98736572265625
H 43.04860305786133 45.0633430480957 51.53767776489258
C 41.02548599243164 46.81821060180664 51.08821105957031
H 40.437538146972656 47.733638763427734 51.13542175292969
C 40.52088165283203 45.71775436401367 50.270240783691406
C 39.28118133544922 45.68964767456055 49.574031829833984
H 38.540321350097656 46.47506332397461 49.46693420410156
C 39.13867950439453 44.41340255737305 49.11412048339844
H 38.34981155395508 44.01063919067383 48.487464904785156
C 40.18612289428711 43.74680709838867 49.54580307006836
N 41.02207946777344 44.530574798583984 50.289058685302734
C 48.940513610839844 46.62997817993164 53.9073371887207
C 48.06361389160156 47.53425216674805 53.31637191772461
H 48.25617980957031 48.562259674072266 53.020259857177734
C 46.687652587890625 47.117549896240234 53.170921325683594
H 46.05204772949219 47.791255950927734 52.60198211669922
C 46.23543930053711 45.874698638916016 53.66289138793945
C 48.53508758544922 45.346004486083984 54.23579025268555
H 49.341156005859375 44.75705337524414 54.665855407714844
C 47.19681167602539 44.923038482666016 54.12462615966797
H 46.821388244628906 43.93629837036133 54.3834114074707
N 50.32533264160156 46.93159866333008 54.239402770996094
H 50.99205017089844 46.2099494934082 54.009605407714844
C 50.81303405761719 48.02254867553711 54.80925750732422
O 50.12714385986328 49.008060455322266 54.95118713378906
C 52.28041076660156 48.05082321166992 55.19047927856445
C 52.94551086425781 49.24838638305664 55.34733581542969
H 52.46288299560547 50.1966667175293 55.125064849853516
C 54.260589599609375 49.30991744995117 55.66374206542969
C 54.95849609375 48.10561752319336 55.87989044189453
H 56.02326965332031 48.09371566772461 56.098289489746094
C 54.24366760253906 46.908687591552734 55.95545196533203
H 54.76231384277344 45.98027420043945 56.180458068847656
C 52.930137634277344 46.83333969116211 55.55813980102539
H 52.377784729003906 45.89863967895508 55.505096435546875
C 54.942100524902344 50.60909652709961 55.736061096191406
H 54.32649230957031 51.48001480102539 55.51597213745117
C 56.235145568847656 50.80678939819336 55.98015213012695
H 56.90892791748047 50.023380279541016 56.32395935058594
C 56.904510498046875 52.098941802978516 55.83458709716797
C 56.421417236328125 53.1737174987793 56.73524856567383
H 56.40602111816406 52.70115280151367 57.71958541870117
H 55.431129455566406 53.58096694946289 56.52092361450195
H 57.159889221191406 53.95365524291992 56.932273864746094
C 57.93763732910156 52.316158294677734 54.99002456665039
H 58.3436279296875 51.44282150268555 54.48170471191406
C 58.67817687988281 53.552974700927734 54.69662094116211
H 58.307945251464844 54.51613998413086 55.04471206665039
C 59.771522521972656 53.55141830444336 53.88081359863281
H 60.113380432128906 52.552486419677734 53.6140022277832
C 60.4991455078125 54.66530990600586 53.36653137207031
C 61.32305908203125 54.306575775146484 52.1527099609375
H 62.25273895263672 53.86507034301758 52.5177116394043
H 60.84868621826172 53.4682502746582 51.638275146484375
H 61.51554870605469 55.11789321899414 51.44760513305664
C 60.51555633544922 55.82430648803711 53.90708541870117
H 59.953155517578125 55.9481315612793 54.831363677978516
C 61.345848083496094 56.90066909790039 53.401981353759766
H 61.91998291015625 56.848751068115234 52.47807693481445
C 61.316322326660156 58.06352615356445 54.07536697387695
H 60.68168640136719 58.15944290161133 54.95511245727539
C 62.16517639160156 59.18349075317383 53.74126052856445
H 62.779052734375 59.04378890991211 52.852684020996094
C 62.35974884033203 60.34709548950195 54.39438247680664
C 61.623451232910156 60.79997634887695 55.57736587524414
H 60.59772491455078 60.425533294677734 55.56588363647461
H 62.124427795410156 60.44889450073242 56.48192596435547
H 61.60530090332031 61.88602828979492 55.689720153808594
C 63.25654602050781 61.414066314697266 53.91847229003906
H 63.49053192138672 62.12485885620117 54.70964050292969
C 64.01947784423828 61.39901351928711 52.77888107299805
H 63.72843933105469 60.69589614868164 51.9998779296875
C 64.9805679321289 62.44039535522461 52.350303649902344
H 65.09185791015625 63.27072525024414 53.04606628417969
C 65.72817993164062 62.350955963134766 51.25274658203125
C 65.68448638916016 61.19297409057617 50.27158737182617
H 66.62859344482422 61.0790901184082 49.73478317260742
H 65.52107238769531 60.37385940551758 50.97501754760742
H 64.7884521484375 61.3638801574707 49.67128372192383
C 66.77999114990234 63.30576705932617 51.07060241699219
H 67.0262222290039 63.81772232055664 51.99968719482422
C 67.38842010498047 63.739070892333984 49.942195892333984
H 67.06104278564453 63.20711135864258 49.050140380859375
C 68.57786560058594 64.61424255371094 49.861305236816406
C 68.83061218261719 65.65314483642578 50.68971633911133
C 67.78919982910156 66.19640350341797 51.720272064208984
H 67.943603515625 65.70973205566406 52.68556213378906
H 67.86444854736328 67.2852554321289 51.685699462890625
H 66.79314422607422 65.98095703125 51.32793045043945
C 70.13475036621094 66.3753433227539 50.777462005615234
H 70.71562194824219 66.1177749633789 51.665557861328125
H 69.95577239990234 67.43994140625 50.94196319580078
C 71.04782104492188 66.37528991699219 49.50462341308594
H 72.03952026367188 66.80111694335938 49.670982360839844
H 70.5280990600586 66.97132110595703 48.75156784057617
C 71.02909851074219 64.84596252441406 49.02451705932617
H 71.68671417236328 64.66657257080078 48.171390533447266
H 71.49801635742188 64.3034896850586 49.848106384277344
C 69.56861877441406 64.24998474121094 48.708335876464844
C 69.07604217529297 64.82972717285156 47.357505798339844
H 68.13591003417969 64.33453369140625 47.10572814941406
H 69.06982421875 65.91921997070312 47.28383255004883
H 69.7446517944336 64.56488037109375 46.53574752807617
C 69.82675170898438 62.778194427490234 48.34779357910156
H 68.87871551513672 62.2540397644043 48.210166931152344
H 70.49577331542969 62.716060638427734 47.48696517944336
H 70.17752075195312 62.23698043823242 49.2289924621582
