207
Triad, Carotenoid-Porphyrin-C60
C 57.27654266357422 34.523555755615234 53.95719528198242
C 51.4764289855957 33.309749603271484 51.69599533081055
C 53.343544006347656 33.22523880004883 50.52116775512695
C 55.70439910888672 32.98068618774414 51.14053726196289
C 50.553001403808594 33.2620735168457 53.89204788208008
C 50.78209686279297 33.942745208740234 52.70736312866211
C 51.695030212402344 31.340599060058594 53.0628776550293
C 54.16837692260742 31.261886596679688 51.73709487915039
C 56.875099182128906 32.48716354370117 54.92728042602539
C 50.99153137207031 31.97026824951172 54.07973098754883
C 57.200531005859375 33.53670120239258 52.93808364868164
C 52.052188873291016 34.74342727661133 56.7603645324707
C 50.62326431274414 34.19015884399414 54.8885383605957
C 54.43385696411133 34.57095718383789 57.325435638427734
C 55.31487274169922 32.37187576293945 56.79106521606445
C 55.510379791259766 33.756595611572266 57.05839157104492
C 51.66727828979492 32.56331253051758 56.36587142944336
C 52.76470947265625 30.604896545410156 53.62949752807617
C 53.95256042480469 30.578903198242188 52.9887580871582
C 55.130828857421875 30.851974487304688 55.03952407836914
C 53.89878845214844 37.20913314819336 51.982059478759766
C 52.65848159790039 37.08988571166992 52.847660064697266
C 53.78070831298828 35.99587631225586 51.09110641479492
C 52.544715881347656 35.38444900512695 51.232784271240234
C 55.912052154541016 35.75870895385742 56.0710563659668
C 52.60530090332031 37.14976119995117 54.2280158996582
C 56.62917709350586 33.89017868041992 51.70912551879883
C 52.36227035522461 35.96707534790039 56.13142013549805
C 50.81380081176758 35.4460563659668 54.37253952026367
C 54.6975212097168 35.80147933959961 56.73405838012695
C 54.87975311279297 35.12369155883789 50.888919830322266
C 52.906044006347656 32.6780891418457 57.13435745239258
C 54.00608444213867 31.865219116210938 56.76627731323242
C 55.13588333129883 30.72211456298828 53.67314529418945
C 52.69353485107422 30.855300903320312 55.002193450927734
C 55.19075012207031 37.32307815551758 52.804805755615234
C 55.05443572998047 37.22944259643555 54.326168060302734
C 56.26667404174805 36.19948196411133 52.58413314819336
C 56.074867248535156 36.3425407409668 54.82108688354492
C 56.02693557739258 31.7354736328125 55.75692367553711
C 51.82852554321289 36.0699577331543 52.244144439697266
C 56.11793518066406 35.22696304321289 51.591190338134766
C 56.807315826416016 35.76602554321289 53.80117416381836
C 54.64762496948242 33.7722282409668 50.617008209228516
C 56.389244079589844 34.465274810791016 56.26321029663086
C 53.7912483215332 37.20424270629883 54.9433708190918
C 51.723567962646484 36.3709602355957 54.97959518432617
C 52.333213806152344 34.04851150512695 50.88853073120117
C 50.913936614990234 35.31172561645508 52.97929000854492
C 53.87166213989258 30.94884490966797 55.66416549682617
C 53.628562927246094 36.497249603271484 56.116695404052734
C 57.11509704589844 33.855709075927734 55.17849349975586
C 51.920284271240234 32.03377914428711 51.84432601928711
C 53.12864303588867 31.988494873046875 51.16524124145508
C 55.48332214355469 31.73578643798828 51.7059440612793
C 56.95914077758789 32.293941497802734 53.545719146728516
C 51.2265510559082 33.86270523071289 56.136234283447266
C 53.10475540161133 34.044437408447266 57.34013748168945
C 56.097816467285156 31.41912078857422 52.912906646728516
C 51.56950378417969 31.617897033691406 55.33413314819336
C 53.98531723022461 38.45964431762695 51.0935173034668
N 54.95469284057617 39.26144790649414 51.34647750854492
C 55.76560592651367 38.775875091552734 52.49015426635742
H 55.66041946411133 39.533992767333984 53.27043533325195
H 56.80879592895508 38.75143051147461 52.16487503051758
C 51.2095832824707 39.46065139770508 47.91823196411133
C 50.773319244384766 39.38699722290039 49.2552375793457
H 49.74571228027344 39.60531234741211 49.53440475463867
C 51.64739990234375 39.02877426147461 50.30543899536133
H 51.47495651245117 39.1490364074707 51.37191390991211
C 53.00572967529297 38.86225509643555 50.0750617980957
C 52.53644561767578 39.23838424682617 47.715572357177734
H 52.9862174987793 39.24039840698242 46.72598648071289
C 53.45486068725586 39.03367233276367 48.75809860229492
H 54.52949905395508 38.92173385620117 48.63895797729492
C 50.28643035888672 39.82216262817383 46.78885269165039
C 49.02696990966797 40.46066665649414 46.97233963012695
C 47.864501953125 39.97348403930664 47.527584075927734
H 47.7077751159668 38.9708137512207 47.91140365600586
C 46.921142578125 40.962284088134766 47.3469352722168
H 45.86598205566406 40.87649154663086 47.58463668823242
C 47.45341491699219 42.086795806884766 46.742855072021484
N 48.77267837524414 41.72055435180664 46.461605072021484
H 49.47848892211914 42.33046340942383 46.0717658996582
C 46.900184631347656 43.367740631103516 46.4721565246582
H 45.87877655029297 43.4813117980957 46.83236312866211
C 47.26655197143555 44.340579986572266 45.537227630615234
C 47.067874908447266 45.6666374206543 45.910892486572266
H 46.49187469482422 46.0911979675293 46.72649002075195
C 47.89524841308594 46.29655838012695 45.06089401245117
H 48.07186508178711 47.36616134643555 45.10531234741211
C 48.572601318359375 45.36784744262695 44.15694046020508
N 48.16201400756836 44.11624526977539 44.517086029052734
C 49.61151885986328 45.70681381225586 43.176578521728516
C 50.382198333740234 44.73111343383789 42.58073043823242
C 50.76845169067383 44.61173629760742 41.199947357177734
H 50.47563171386719 45.3696403503418 40.480873107910156
C 51.33531188964844 43.38405227661133 40.981483459472656
H 51.78200149536133 42.94514083862305 40.09545135498047
C 51.2808952331543 42.673030853271484 42.14523696899414
N 50.691680908203125 43.50844192504883 43.00087356567383
H 50.38332748413086 43.171993255615234 43.90300369262695
C 51.636661529541016 41.386234283447266 42.40927505493164
H 52.0179328918457 40.854061126708984 41.53902053833008
C 51.45130157470703 40.4587516784668 43.51712417602539
C 51.77220916748047 39.051212310791016 43.61601638793945
H 52.12605285644531 38.32088851928711 42.89584732055664
C 51.341094970703125 38.64299392700195 44.833133697509766
H 51.34336853027344 37.59755325317383 45.123409271240234
C 50.85920715332031 39.792057037353516 45.518985748291016
N 50.86233901977539 40.79964828491211 44.6926383972168
C 49.95651626586914 49.6860466003418 41.37787628173828
C 51.01580810546875 48.77975082397461 41.426513671875
H 51.97243118286133 49.03988265991211 40.98067092895508
C 50.8947639465332 47.52467727661133 42.00779342651367
H 51.74262237548828 46.85251235961914 41.903385162353516
C 49.74335861206055 47.11751937866211 42.59737777709961
C 48.79545974731445 49.33487319946289 42.0832405090332
H 48.01335525512695 50.07402420043945 41.929813385009766
C 48.71915817260742 48.02518081665039 42.692325592041016
H 47.714420318603516 47.78569412231445 43.0310173034668
N 50.104881286621094 50.9506950378418 40.66571807861328
H 50.26995086669922 50.7685661315918 39.68711853027344
C 49.8144645690918 52.20060348510742 41.165958404541016
O 49.578147888183594 52.33736801147461 42.362308502197266
C 49.71892547607422 53.38315963745117 40.20326614379883
C 49.221900939941406 54.60426712036133 40.628841400146484
H 48.81342315673828 54.77852249145508 41.62098693847656
C 49.204254150390625 55.70168685913086 39.80724334716797
C 49.81855773925781 55.525577545166016 38.57076644897461
H 49.79430389404297 56.36213302612305 37.87710952758789
C 50.2406120300293 54.32920455932617 38.086936950683594
H 50.64840316772461 54.28676986694336 37.080223083496094
C 50.146690368652344 53.18277359008789 38.88815689086914
H 50.38703155517578 52.20515823364258 38.47818374633789
C 48.54450607299805 57.00405502319336 40.2855110168457
H 48.096317291259766 56.89438247680664 41.27192687988281
C 48.478851318359375 58.19440841674805 39.589115142822266
H 48.87599563598633 58.37050247192383 38.59052276611328
C 47.72064971923828 59.3705940246582 40.02315902709961
C 47.23297119140625 60.20652389526367 38.90383529663086
H 46.18048095703125 59.94807815551758 38.769954681396484
H 47.77933120727539 60.0635871887207 37.969207763671875
H 47.39896011352539 61.24907302856445 39.18313217163086
C 47.44121170043945 59.595218658447266 41.298187255859375
H 47.87985610961914 58.9224739074707 42.03367233276367
C 46.655643463134766 60.71184158325195 41.82136917114258
H 46.15898132324219 61.3056526184082 41.055450439453125
C 46.599857330322266 61.03213119506836 43.12819290161133
H 47.24707794189453 60.50481033325195 43.827457427978516
C 45.7999267578125 62.09224319458008 43.77531814575195
C 45.03621292114258 63.14316177368164 42.9015007019043
H 45.57249069213867 63.30253219604492 41.96370315551758
H 43.96357727050781 62.9412956237793 42.86729049682617
H 45.11464309692383 64.07855987548828 43.45949935913086
C 45.76401901245117 62.15486526489258 45.13357925415039
H 46.55778121948242 61.54019546508789 45.555545806884766
C 45.13125228881836 63.12123489379883 45.982975006103516
H 44.60806655883789 63.991153717041016 45.58871841430664
C 45.04471969604492 62.97019577026367 47.270572662353516
H 45.58808135986328 62.11276626586914 47.66488265991211
C 44.21665954589844 63.8122673034668 48.131893157958984
H 43.625030517578125 64.60633087158203 47.678714752197266
C 44.241920471191406 63.82594680786133 49.48415756225586
C 45.07539749145508 62.86232376098633 50.25010299682617
H 46.132144927978516 63.087459564208984 50.09176254272461
H 44.957489013671875 62.93747329711914 51.3331184387207
H 44.89857864379883 61.83060836791992 49.93904495239258
C 43.40674591064453 64.5987319946289 50.348262786865234
H 43.207244873046875 64.20484924316406 51.3437385559082
C 42.92332077026367 65.80126953125 50.03911209106445
H 43.190765380859375 66.37956237792969 49.155948638916016
C 41.953948974609375 66.42716979980469 50.89326858520508
H 41.815547943115234 65.88680267333984 51.828556060791016
C 41.391292572021484 67.61470794677734 50.68593978881836
C 41.76863098144531 68.46605682373047 49.494197845458984
H 41.455604553222656 69.51200866699219 49.515621185302734
H 42.84532928466797 68.36235046386719 49.34443283081055
H 41.22762680053711 68.09422302246094 48.62154769897461
C 40.48940658569336 68.24984741210938 51.6197395324707
H 40.314117431640625 69.31694793701172 51.49131393432617
C 39.796714782714844 67.7386703491211 52.64701461791992
H 39.76245880126953 66.68204498291016 52.90834426879883
C 38.83027267456055 68.47006225585938 53.45327377319336
C 37.528751373291016 68.6939697265625 53.105167388916016
C 36.86178207397461 68.07989501953125 51.87154006958008
H 36.29376983642578 68.90646362304688 51.43955612182617
H 37.43917465209961 67.7139663696289 51.01996994018555
H 36.23151397705078 67.20513153076172 52.0448112487793
C 36.56084060668945 69.50253295898438 53.96916580200195
H 36.02304458618164 68.76636505126953 54.570255279541016
H 35.79111862182617 70.02590942382812 53.398136138916016
C 37.307899475097656 70.54351043701172 54.87205123901367
H 36.64837646484375 71.04955291748047 55.58015823364258
H 37.77187728881836 71.30550384521484 54.2423210144043
C 38.357887268066406 69.6423110961914 55.66359329223633
H 38.780006408691406 70.15544891357422 56.53017807006836
H 37.846134185791016 68.72806549072266 55.97136306762695
C 39.43551254272461 69.15570068359375 54.77033615112305
C 40.4405632019043 70.26841735839844 54.6303825378418
H 41.274200439453125 69.90084075927734 54.028377532958984
H 39.97092819213867 71.02461242675781 53.997867584228516
H 40.726383209228516 70.7275161743164 55.57905960083008
C 40.12042999267578 68.19379425048828 55.7440299987793
H 41.07198715209961 67.93559265136719 55.27463150024414
H 40.37628936767578 68.63629150390625 56.70901107788086
H 39.46733474731445 67.33513641357422 55.91328048706055
