207
Triad, Carotenoid-Porphyrin-C60
C 51.70384979248047 50.19391632080078 41.24821472167969
C 50.575103759765625 51.005027770996094 47.471805572509766
C 49.28546905517578 51.51906204223633 45.756019592285156
C 49.003273010253906 50.94498825073242 43.41184997558594
C 52.448394775390625 49.56119918823242 47.959651947021484
C 51.873931884765625 50.85528564453125 47.89002227783203
C 50.38499450683594 48.62723922729492 47.27717590332031
C 48.67268371582031 49.19447326660156 45.13994598388672
C 51.250083923339844 48.06996154785156 41.77046203613281
C 51.732078552246094 48.412235260009766 47.65361404418945
C 50.36418151855469 50.094329833984375 41.627864837646484
C 55.20903778076172 48.81184768676758 45.79300308227539
C 53.80554962158203 49.63269805908203 47.63033676147461
C 54.835472106933594 48.27521514892578 43.45844268798828
C 52.92228698730469 46.85192108154297 43.05918502807617
C 53.91143798828125 47.704994201660156 42.60860061645508
C 53.61927795410156 47.42951965332031 46.5452995300293
C 50.12805938720703 47.67833709716797 46.3084716796875
C 49.31388854980469 47.94894027709961 45.23393249511719
C 50.80104064941406 46.7317008972168 43.73590087890625
C 52.704246520996094 53.69124984741211 44.44857406616211
C 53.478660583496094 53.03467559814453 45.58341598510742
C 51.234886169433594 53.322914123535156 44.81747055053711
C 51.23419952392578 52.85996627807617 46.11080551147461
C 54.32109832763672 49.86751174926758 41.94974136352539
C 54.63079833984375 52.24609375 45.311058044433594
C 49.85972595214844 51.18033981323242 42.31626510620117
C 55.48533630371094 50.19523239135742 45.453617095947266
C 54.0985107421875 50.96181869506836 47.34239959716797
C 55.108367919921875 49.55872344970703 43.1057243347168
C 50.34515380859375 52.684696197509766 43.9227409362793
C 53.959930419921875 47.01475524902344 45.27915573120117
C 52.927734375 46.49885940551758 44.4273796081543
C 49.642677307128906 47.5111198425293 43.937782287597656
C 51.27110290527344 46.89039611816406 46.13900375366211
C 52.99658203125 53.18183135986328 42.95606231689453
C 54.06535339355469 52.18000030517578 42.93165588378906
C 51.933753967285156 52.38970184326172 42.14314651489258
C 53.83534240722656 51.198394775390625 41.88637161254883
C 51.607704162597656 46.99041748046875 42.575077056884766
C 52.57978057861328 52.73837661743164 46.590797424316406
C 50.66423797607422 52.22074508666992 42.592369079589844
C 52.504417419433594 51.30438232421875 41.54325485229492
C 49.325111389160156 51.858943939208984 44.417057037353516
C 53.55205535888672 48.736572265625 41.729896545410156
C 54.92455291748047 51.82562255859375 44.02802658081055
C 54.965728759765625 51.23176956176758 46.23444366455078
C 50.290184020996094 51.97008514404297 46.57746887207031
C 52.897918701171875 51.724727630615234 47.51390075683594
C 51.64488983154297 46.43977737426758 44.87187194824219
C 55.348358154296875 50.522438049316406 44.088401794433594
C 52.24578857421875 48.91670608520508 41.331050872802734
C 49.80119323730469 49.890716552734375 47.16294860839844
C 48.892845153808594 50.202392578125 46.13856506347656
C 48.712013244628906 49.56003189086914 43.82889938354492
C 50.07220458984375 48.80160140991211 41.96174240112305
C 54.36157989501953 48.569454193115234 46.880950927734375
C 54.88200378417969 47.902732849121094 44.76409149169922
C 49.246978759765625 48.52622604370117 43.03843688964844
C 52.330162048339844 47.34904098510742 46.94297790527344
C 52.79608154296875 55.21915817260742 44.27035140991211
N 53.24053192138672 55.5871696472168 43.1750373840332
C 53.452964782714844 54.4705696105957 42.221656799316406
H 54.481651306152344 54.43069839477539 41.85442352294922
H 52.83348846435547 54.719120025634766 41.356136322021484
C 51.48463439941406 58.18037414550781 47.275821685791016
C 50.85346984863281 58.005149841308594 46.04930877685547
H 50.00868225097656 58.66328048706055 45.86285400390625
C 51.207862854003906 57.02586364746094 45.09102249145508
H 50.70646667480469 56.90847396850586 44.13373947143555
C 52.323143005371094 56.173362731933594 45.341651916503906
C 52.661277770996094 57.360809326171875 47.40435791015625
H 53.29668426513672 57.42277145385742 48.28412628173828
C 53.05369567871094 56.35935592651367 46.48594665527344
H 53.96277618408203 55.76655578613281 46.5470085144043
C 51.04070281982422 59.11282730102539 48.381954193115234
C 49.74287414550781 59.6433219909668 48.27658462524414
C 49.21794128417969 60.68587112426758 47.51974105834961
H 49.80469512939453 61.15266799926758 46.7354850769043
C 47.88877868652344 60.92531967163086 47.94096374511719
H 47.21368408203125 61.671695709228516 47.53550720214844
C 47.553504943847656 60.00770950317383 48.87717056274414
N 48.68095397949219 59.205745697021484 49.039161682128906
H 48.74626159667969 58.42861557006836 49.68253707885742
C 46.393951416015625 59.89885330200195 49.61859130859375
H 45.63238525390625 60.56601333618164 49.217529296875
C 46.27714538574219 59.64899826049805 50.93547439575195
C 45.10052490234375 60.0689582824707 51.68779754638672
H 44.22556686401367 60.58159255981445 51.301937103271484
C 45.43492126464844 59.72488784790039 53.010108947753906
H 44.9932861328125 60.03371810913086 53.95181655883789
C 46.70977783203125 59.06834030151367 52.9947624206543
N 47.220619201660156 59.07783889770508 51.784080505371094
C 47.55572509765625 58.59677505493164 54.0640869140625
C 48.87916564941406 59.05826187133789 54.236175537109375
C 49.49535369873047 59.559444427490234 55.44657516479492
H 48.95543670654297 59.592037200927734 56.38713836669922
C 50.839324951171875 59.89730453491211 55.141502380371094
H 51.70159912109375 60.26032638549805 55.690982818603516
C 51.059303283691406 59.72636032104492 53.7724494934082
N 49.88420104980469 59.220462799072266 53.31369400024414
H 49.76923370361328 59.00082015991211 52.333560943603516
C 52.20586395263672 59.859134674072266 53.11396408081055
H 53.06805419921875 60.17892074584961 53.697303771972656
C 52.37066650390625 59.68247604370117 51.631343841552734
C 53.558433532714844 59.816646575927734 50.786827087402344
H 54.542510986328125 60.15105056762695 51.09825897216797
C 53.06958770751953 59.7004508972168 49.52021408081055
H 53.57756042480469 59.87936019897461 48.57831573486328
C 51.76313781738281 59.31100082397461 49.547569274902344
N 51.377357482910156 59.37131118774414 50.816200256347656
C 45.945281982421875 55.27631378173828 56.347984313964844
C 47.2333984375 55.76974868774414 56.589332580566406
H 47.790802001953125 55.46310043334961 57.4707145690918
C 47.791404724121094 56.83436584472656 55.85513687133789
H 48.805458068847656 57.19118881225586 56.0162353515625
C 46.97306823730469 57.39817810058594 54.82389831542969
C 45.17070770263672 55.74562072753906 55.279170989990234
H 44.19523620605469 55.332366943359375 55.03577423095703
C 45.674163818359375 56.8525390625 54.55723571777344
H 45.089385986328125 57.279205322265625 53.74633026123047
N 45.43927764892578 54.32423400878906 57.281795501708984
H 46.12004852294922 53.608978271484375 57.48924255371094
C 44.22097396850586 54.30287170410156 58.0176887512207
O 43.46977996826172 55.25516128540039 57.99382019042969
C 43.88328170776367 52.90701675415039 58.528533935546875
C 44.00003433227539 51.769195556640625 57.73430633544922
H 44.457088470458984 51.88591766357422 56.75499725341797
C 43.65174102783203 50.5086555480957 58.24367904663086
C 43.244197845458984 50.39464569091797 59.576194763183594
H 42.93357467651367 49.447696685791016 60.01021194458008
C 43.04658889770508 51.572303771972656 60.32637023925781
H 42.70254898071289 51.40834045410156 61.3443717956543
C 43.51409149169922 52.80157470703125 59.8807258605957
H 43.486289978027344 53.73049545288086 60.444557189941406
C 43.951263427734375 49.37815475463867 57.32773208618164
H 44.26296615600586 49.74951934814453 56.35261535644531
C 43.865074157714844 48.030242919921875 57.683650970458984
H 43.73556900024414 47.71315383911133 58.717384338378906
C 43.95491027832031 46.86520767211914 56.78566360473633
C 43.31745147705078 45.63272476196289 57.30220413208008
H 42.314388275146484 45.90675735473633 57.63569641113281
H 43.87266540527344 45.20353317260742 58.13886642456055
H 43.234954833984375 44.947608947753906 56.45587158203125
C 44.52685546875 46.97737503051758 55.564788818359375
H 44.894126892089844 47.978633880615234 55.34452438354492
C 44.77018737792969 45.909400939941406 54.547061920166016
H 44.818389892578125 44.86934280395508 54.866241455078125
C 45.11194610595703 46.14518737792969 53.274559020996094
H 45.100685119628906 47.20558547973633 53.0268669128418
C 45.47045135498047 45.18239974975586 52.221797943115234
C 45.94953918457031 45.76797103881836 50.942527770996094
H 46.608978271484375 45.086727142333984 50.4007682800293
H 45.11515808105469 46.02556610107422 50.28684616088867
H 46.4813232421875 46.715091705322266 51.0549430847168
C 45.229087829589844 43.86711502075195 52.27745819091797
H 44.708160400390625 43.55934143066406 53.18290328979492
C 45.53905487060547 42.85261917114258 51.282039642333984
H 46.450782775878906 43.011898040771484 50.708187103271484
C 44.94951629638672 41.7005500793457 51.093082427978516
H 44.01294708251953 41.45238494873047 51.590248107910156
C 45.479339599609375 40.709354400634766 50.156803131103516
H 46.272178649902344 41.09780502319336 49.51927947998047
C 44.94769287109375 39.56218719482422 49.7639274597168
C 43.571510314941406 39.039329528808594 50.2030029296875
H 43.72267150878906 38.180137634277344 50.85981750488281
H 42.99040222167969 39.75743865966797 50.78532791137695
H 42.98306655883789 38.8712158203125 49.29861068725586
C 45.58644104003906 38.663658142089844 48.760135650634766
H 46.468841552734375 39.146522521972656 48.34284591674805
C 45.26592254638672 37.421634674072266 48.361019134521484
H 44.335594177246094 36.97699737548828 48.711326599121094
C 45.974761962890625 36.76681137084961 47.26626205444336
H 46.883995056152344 37.257781982421875 46.92250061035156
C 45.784507751464844 35.5847053527832 46.65354537963867
C 44.724754333496094 34.57357406616211 47.020511627197266
H 44.141151428222656 35.180416107177734 47.7159309387207
H 44.15022659301758 34.213539123535156 46.16450119018555
H 45.11786651611328 33.685062408447266 47.51898956298828
C 46.705352783203125 35.12446212768555 45.595863342285156
H 47.280609130859375 35.940574645996094 45.16116714477539
C 46.788475036621094 33.924503326416016 45.1310920715332
H 46.35688781738281 33.119503021240234 45.72407531738281
C 47.535911560058594 33.545570373535156 43.9878044128418
C 47.567054748535156 34.22732925415039 42.773677825927734
C 46.76100158691406 35.521484375 42.541385650634766
H 46.46460723876953 35.610809326171875 41.49418258666992
H 45.825286865234375 35.656524658203125 43.087886810302734
H 47.37085723876953 36.401153564453125 42.757537841796875
C 48.31632995605469 33.730525970458984 41.5859489440918
H 49.24205780029297 34.30863952636719 41.55036544799805
H 47.67591094970703 33.98984909057617 40.74032211303711
C 48.484352111816406 32.24198913574219 41.6595573425293
H 49.26116180419922 32.04567337036133 40.9176025390625
H 47.61009979248047 31.63118553161621 41.42490005493164
C 49.15473937988281 31.893735885620117 42.961055755615234
H 49.43299865722656 30.839597702026367 42.899139404296875
H 50.042381286621094 32.516944885253906 43.08820343017578
C 48.27912139892578 32.21407699584961 44.14018249511719
C 47.2725830078125 31.04466438293457 44.20414733886719
H 47.80897521972656 30.107107162475586 44.04374313354492
H 46.886390686035156 31.000913619995117 45.224639892578125
H 46.417564392089844 31.237478256225586 43.55282211303711
C 49.20854949951172 32.04001235961914 45.32746505737305
H 48.627403259277344 32.085792541503906 46.25084686279297
H 49.71699523925781 31.075864791870117 45.261444091796875
H 49.99315643310547 32.799312591552734 45.30978012084961
