207
Triad, Carotenoid-Porphyrin-C60
C 64.9347152709961 55.043701171875 40.22932052612305
C 62.582801818847656 49.47743225097656 37.91523361206055
C 62.108558654785156 51.5618896484375 37.21708297729492
C 63.176109313964844 53.74567413330078 37.451053619384766
C 64.26557159423828 48.20426559448242 39.16107177734375
C 62.912384033203125 48.63180923461914 39.060028076171875
C 64.82539367675781 49.38117218017578 37.105281829833984
C 64.31414794921875 51.984954833984375 36.25951385498047
C 66.69914245605469 54.31966018676758 39.05473327636719
C 65.20912170410156 48.618167877197266 38.19044876098633
C 64.58343505859375 54.99527359008789 38.875179290771484
C 66.12903594970703 49.54732131958008 41.94089889526367
C 64.63327026367188 48.296260833740234 40.48937225341797
C 67.11183166503906 51.71692657470703 42.064552307128906
C 68.01739501953125 52.50107955932617 39.94482421875
C 67.53431701660156 52.77781295776367 41.194007873535156
C 66.89878845214844 49.06636047363281 39.877132415771484
C 65.86812591552734 50.2788200378418 36.76835632324219
C 65.61650085449219 51.566707611083984 36.340843200683594
C 67.35224914550781 52.3809700012207 37.77617645263672
C 61.187644958496094 52.30070114135742 41.39323425292969
C 61.792396545410156 50.88172149658203 41.64766311645508
C 61.19904327392578 52.20057678222656 39.85781478881836
C 61.34864044189453 50.92061233520508 39.43880081176758
C 65.76082611083984 53.42292022705078 42.40583801269531
C 62.85375213623047 50.682247161865234 42.548221588134766
C 63.31913757324219 54.5673942565918 38.541664123535156
C 64.97872924804688 49.99843978881836 42.623741149902344
C 63.57489776611328 48.76825714111328 41.19807815551758
C 66.0269546508789 52.17240524291992 42.73521423339844
C 61.68994903564453 53.18960189819336 39.02061462402344
C 67.68434143066406 50.09274673461914 40.36760711669922
C 68.0466537475586 51.13608932495117 39.52846908569336
C 66.34831237792969 52.5997428894043 36.836509704589844
C 66.8604507446289 50.01909255981445 37.66667938232422
C 62.06842041015625 53.508914947509766 41.978355407714844
C 63.351280212402344 53.05282974243164 42.63858413696289
C 62.71405792236328 54.313453674316406 40.869258880615234
C 64.41134643554688 53.87568664550781 42.33397674560547
C 67.58600616455078 53.2479133605957 38.85747146606445
C 61.72871398925781 50.147247314453125 40.50285339355469
C 62.34739685058594 54.298370361328125 39.49152374267578
C 64.03619384765625 54.58481216430664 41.18901443481445
C 62.12071990966797 52.891571044921875 37.729156494140625
C 66.6084213256836 53.76350021362305 41.43376922607422
C 63.650779724121094 51.72560119628906 43.0343017578125
C 63.71235656738281 49.6410026550293 42.25736618041992
C 61.72417449951172 50.590999603271484 38.13397216796875
C 62.51353454589844 49.015106201171875 40.32505798339844
C 67.66584014892578 51.083168029785156 38.17182922363281
C 65.00751495361328 51.29448699951172 43.05488586425781
C 66.23255157470703 54.591983795166016 40.34855270385742
C 63.48384094238281 49.8139762878418 36.89680099487305
C 63.2261962890625 51.15432357788086 36.49686813354492
C 64.2242660522461 53.313072204589844 36.65476989746094
C 65.64945983886719 54.54851531982422 38.133758544921875
C 65.9383316040039 48.733299255371094 40.80601119995117
C 67.16638946533203 50.407901763916016 41.619544982910156
C 65.47832489013672 53.67817306518555 37.05123519897461
C 66.46095275878906 49.044002532958984 38.5317497253418
C 59.833160400390625 52.56411361694336 42.020957946777344
N 59.830787658691406 53.62559509277344 42.724647521972656
C 61.14356994628906 54.300132751464844 42.90306091308594
H 61.338768005371094 54.31247329711914 43.97842025756836
H 61.03246307373047 55.301307678222656 42.47885513305664
C 56.20787811279297 50.304447174072266 41.37152862548828
C 57.33442687988281 49.7274284362793 41.937110900878906
H 57.3099365234375 48.66264343261719 42.15436935424805
C 58.50447082519531 50.45420455932617 42.012081146240234
H 59.34014892578125 49.896942138671875 42.42761993408203
C 58.625701904296875 51.811546325683594 41.67952346801758
C 56.228965759277344 51.678810119628906 41.19191360473633
H 55.294517517089844 52.17817306518555 40.94899368286133
C 57.47003936767578 52.447269439697266 41.305519104003906
H 57.34968566894531 53.52025604248047 41.17988967895508
C 54.96075439453125 49.58406448364258 41.02683639526367
C 54.99922180175781 48.1515007019043 41.42707824707031
C 55.73554992675781 47.0759162902832 40.85448455810547
H 56.34764862060547 47.08820343017578 39.958709716796875
C 55.355125427246094 45.93214797973633 41.589107513427734
H 55.737693786621094 44.93029022216797 41.42433166503906
C 54.39873504638672 46.26034164428711 42.55048751831055
N 54.20415496826172 47.59318542480469 42.36924362182617
H 53.58935546875 48.10179901123047 42.99009704589844
C 53.67450714111328 45.37861251831055 43.49081039428711
H 54.00123596191406 44.349185943603516 43.63028335571289
C 52.566383361816406 45.786903381347656 44.26182556152344
C 51.69239044189453 44.85666275024414 44.96144485473633
H 51.63758850097656 43.77314758300781 44.97604751586914
C 50.775657653808594 45.67906951904297 45.487979888916016
H 49.85919952392578 45.369590759277344 45.979469299316406
C 51.062522888183594 47.10525894165039 45.17023468017578
N 52.164390563964844 47.10136032104492 44.36492156982422
C 50.25952911376953 48.33198165893555 45.46744918823242
C 49.888671875 49.3264274597168 44.545162200927734
C 48.57698059082031 49.645626068115234 44.163841247558594
H 47.64301300048828 49.4530143737793 44.681358337402344
C 48.59004211425781 50.349918365478516 42.99118423461914
H 47.7615966796875 50.79044723510742 42.446353912353516
C 49.925697326660156 50.32372283935547 42.452476501464844
N 50.607643127441406 49.66123962402344 43.430030822753906
H 51.560462951660156 49.3613166809082 43.27411651611328
C 50.35762023925781 50.98090362548828 41.36341857910156
H 49.560882568359375 51.41558837890625 40.7616081237793
C 51.72174835205078 50.83694076538086 40.731361389160156
C 52.267723083496094 51.34308624267578 39.514060974121094
H 51.681854248046875 51.9390869140625 38.82213592529297
C 53.59458923339844 50.939849853515625 39.44926834106445
H 54.269935607910156 51.183128356933594 38.63566589355469
C 53.76438903808594 50.17365264892578 40.600467681884766
N 52.679344177246094 50.12421798706055 41.35285186767578
C 48.95574951171875 48.88614273071289 49.66160583496094
C 48.566131591796875 49.71927261352539 48.65304183959961
H 47.86865234375 50.51598358154297 48.898685455322266
C 48.99964904785156 49.540767669677734 47.341827392578125
H 48.59004211425781 50.16111755371094 46.54875564575195
C 49.80689239501953 48.47373962402344 46.91083908081055
C 49.78337860107422 47.83683776855469 49.290199279785156
H 50.11582946777344 47.180625915527344 50.09046936035156
C 50.20728302001953 47.61442565917969 47.948341369628906
H 50.74571228027344 46.69966506958008 47.71410369873047
N 48.543373107910156 48.97672653198242 50.98725891113281
H 49.03839111328125 48.36009979248047 51.614009857177734
C 47.43798065185547 49.551490783691406 51.559268951416016
O 46.662506103515625 50.173885345458984 50.91621780395508
C 47.226776123046875 49.32121658325195 53.01448440551758
C 45.956329345703125 49.24899673461914 53.55553436279297
H 45.193603515625 49.387367248535156 52.79351806640625
C 45.72437286376953 48.99073791503906 54.89513397216797
C 46.7816162109375 48.87774658203125 55.75897216796875
H 46.50360870361328 48.650882720947266 56.78504180908203
C 48.092979431152344 48.95378875732422 55.265403747558594
H 48.97975158691406 48.878108978271484 55.889488220214844
C 48.256614685058594 49.22770309448242 53.876678466796875
H 49.271644592285156 49.417213439941406 53.537010192871094
C 44.312950134277344 48.68010330200195 55.25598907470703
H 43.521339416503906 48.808074951171875 54.51917266845703
C 43.80579376220703 48.25666427612305 56.4404296875
H 44.46142578125 48.059288024902344 57.287254333496094
C 42.38671875 47.98951721191406 56.77191925048828
C 41.486000061035156 47.981666564941406 55.58000183105469
H 40.430999755859375 47.73365783691406 55.7138671875
H 41.766807556152344 47.220523834228516 54.84906005859375
H 41.47492980957031 48.91064453125 55.00611877441406
C 41.89537811279297 47.70275115966797 58.03334045410156
H 42.5706787109375 47.540916442871094 58.87220764160156
C 40.473899841308594 47.495418548583984 58.432525634765625
H 39.74798583984375 47.478965759277344 57.62091827392578
C 40.044776916503906 47.25166702270508 59.71985626220703
H 40.786888122558594 47.30516815185547 60.515045166015625
C 38.684608459472656 46.94393539428711 60.15410614013672
C 38.40887451171875 47.36612319946289 61.54229736328125
H 37.477783203125 47.91767120361328 61.68833923339844
H 38.25109100341797 46.445556640625 62.10808563232422
H 39.19945526123047 48.02482604980469 61.907745361328125
C 37.726600646972656 46.407081604003906 59.475608825683594
H 37.901527404785156 46.22079086303711 58.417015075683594
C 36.392967224121094 46.230506896972656 59.8529052734375
H 36.131080627441406 46.16832733154297 60.908111572265625
C 35.38670349121094 46.141822814941406 58.986656188964844
H 35.647796630859375 46.119651794433594 57.929649353027344
C 34.013885498046875 45.871334075927734 59.41752624511719
H 33.96215057373047 45.35502243041992 60.37495422363281
C 32.88811492919922 46.14431381225586 58.77478790283203
C 32.984397888183594 46.782508850097656 57.407379150390625
H 33.78984069824219 47.50556564331055 57.26276397705078
H 33.06224822998047 45.97010803222656 56.68183135986328
H 32.07240295410156 47.326786041259766 57.15342712402344
C 31.504234313964844 45.95915985107422 59.11445617675781
H 30.682701110839844 46.397727966308594 58.549957275390625
C 31.032875061035156 45.171730041503906 60.13365173339844
H 31.728050231933594 44.63562774658203 60.778045654296875
C 29.564598083496094 44.92276382446289 60.50956726074219
H 28.875732421875 45.3367919921875 59.77473449707031
C 29.04291534423828 44.30314254760742 61.587867736816406
C 29.884239196777344 43.921504974365234 62.72798156738281
H 30.395004272460938 44.80015182495117 63.12742614746094
H 29.3828125 43.52132034301758 63.611663818359375
H 30.68328094482422 43.24134063720703 62.42572021484375
C 27.571636199951172 44.129005432128906 61.726829528808594
H 27.228076934814453 43.3337516784668 62.38672637939453
C 26.54631805419922 44.725791931152344 61.060943603515625
H 26.77517318725586 45.582950592041016 60.42942810058594
C 25.138607025146484 44.378517150878906 61.125091552734375
C 24.42272186279297 44.41824722290039 62.28314208984375
C 25.01355743408203 44.664241790771484 63.67627716064453
H 26.093387603759766 44.82093811035156 63.633033752441406
H 24.637096405029297 45.49800109863281 64.27259063720703
H 24.908374786376953 43.74834442138672 64.26154327392578
C 22.961963653564453 44.05031204223633 62.41991424560547
H 22.289058685302734 44.91034698486328 62.41912841796875
H 22.724998474121094 43.626678466796875 63.398101806640625
C 22.480552673339844 43.20580291748047 61.20905303955078
H 21.39468002319336 43.12590408325195 61.12560272216797
H 22.878101348876953 42.195613861083984 61.09100341796875
C 22.921321868896484 44.03013229370117 59.91546630859375
H 22.424869537353516 43.80105972290039 58.97019958496094
H 22.653209686279297 45.068546295166016 60.121070861816406
C 24.427654266357422 44.0257453918457 59.819053649902344
C 24.98160171508789 42.72597122192383 59.26319122314453
H 24.386669158935547 42.53303909301758 58.36803436279297
H 26.02486801147461 42.753936767578125 58.941810607910156
H 24.952407836914062 41.97289276123047 60.053436279296875
C 24.74633026123047 45.105003356933594 58.73560333251953
H 24.262969970703125 45.00196838378906 57.7618408203125
H 24.544307708740234 46.13294982910156 59.043785095214844
H 25.815078735351562 45.079307556152344 58.512939453125
