207
Triad, Carotenoid-Porphyrin-C60
C 66.47868347167969 38.98954772949219 50.281150817871094
C 64.06684112548828 41.462039947509766 44.85429763793945
C 65.28307342529297 42.49521255493164 46.43075942993164
C 66.75387573242188 41.92173385620117 48.18088912963867
C 63.59459686279297 39.27219009399414 44.0631103515625
C 63.11408233642578 40.456024169921875 44.59908676147461
C 65.82002258300781 40.1008186340332 43.956504821777344
C 67.37374114990234 41.3880615234375 45.953739166259766
C 67.91181945800781 38.108768463134766 48.75294494628906
C 64.9214859008789 39.101036071777344 43.6627197265625
C 67.16484069824219 40.04304122924805 49.638973236083984
C 63.317481994628906 36.30133819580078 46.08082962036133
C 62.91431427001953 38.19663619995117 44.62911605834961
C 64.79739379882812 35.72145462036133 47.83966827392578
C 67.06109619140625 36.34128952026367 47.306880950927734
C 66.09488677978516 36.07468795776367 48.258548736572266
C 64.86929321289062 36.8262825012207 44.51777267456055
C 67.02642822265625 39.55084228515625 44.42164611816406
C 67.76424407958984 40.13722229003906 45.441585540771484
C 68.27811431884766 38.04838180541992 46.361515045166016
C 62.302833557128906 40.954368591308594 49.126705169677734
C 61.732879638671875 40.17930221557617 47.959022521972656
C 63.248497009277344 41.9278564453125 48.34640121459961
C 62.96986389160156 41.901851654052734 46.962074279785156
C 64.6444320678711 36.90769958496094 49.73569869995117
C 61.59283447265625 38.798744201660156 47.93109893798828
C 66.5084228515625 41.22883224487305 49.388057708740234
C 62.445838928222656 36.885555267333984 47.01164627075195
C 62.03881072998047 38.7467041015625 45.54979705810547
C 63.89459228515625 36.23910903930664 48.75447082519531
C 64.55352020263672 42.0291633605957 48.71734619140625
C 65.4288330078125 36.039329528808594 45.51961898803711
C 66.696533203125 36.37971496582031 45.94215774536133
C 68.43803405761719 39.42287826538086 46.39679718017578
C 66.84291076660156 38.14972686767578 44.36533737182617
C 62.936065673828125 40.119083404541016 50.23036193847656
C 62.93329620361328 38.6232795715332 49.965293884277344
C 64.44815826416016 40.292598724365234 50.43429183959961
C 64.20046997070312 38.07736587524414 50.350616455078125
C 68.0302505493164 37.37405776977539 47.569339752197266
C 62.05730438232422 40.852359771728516 46.77775955200195
C 65.15252685546875 41.3233528137207 49.758583068847656
C 65.11796569824219 39.10707092285156 50.60367965698242
C 65.5217514038086 42.42352294921875 47.792903900146484
C 66.01947784423828 36.81128692626953 49.443424224853516
C 62.29027557373047 38.05649948120117 48.919002532958984
C 61.786346435546875 38.05439376831055 46.76658630371094
C 64.0057144165039 42.16598129272461 46.028541564941406
C 62.13087463378906 40.14310836791992 45.546409606933594
C 67.40519714355469 37.446128845214844 45.391326904296875
C 62.689971923828125 36.8179817199707 48.3705940246582
C 66.91503143310547 37.81986999511719 49.719276428222656
C 65.39387512207031 41.293312072753906 44.576995849609375
C 66.20330810546875 42.00920867919922 45.49986267089844
C 67.7176513671875 41.42198944091797 47.293365478515625
C 68.077392578125 39.56479263305664 48.71031188964844
C 63.54541778564453 37.021270751953125 44.92576599121094
C 64.49443054199219 35.67510223388672 46.46197509765625
C 68.3740005493164 40.23819351196289 47.532501220703125
C 65.53974151611328 37.88047409057617 43.9326286315918
C 61.2066650390625 41.653743743896484 49.926544189453125
N 61.01713562011719 41.34438705444336 51.1751594543457
C 62.18183898925781 40.4998664855957 51.528499603271484
H 61.892051696777344 39.60468292236328 52.08467102050781
H 62.86222839355469 41.132171630859375 52.1046142578125
C 58.746986389160156 44.52082061767578 47.85057067871094
C 58.45745849609375 43.08750915527344 47.76068115234375
H 57.67890930175781 42.64779281616211 47.14255142211914
C 59.23274230957031 42.2143669128418 48.52980041503906
H 58.97997283935547 41.16021728515625 48.61008834838867
C 60.30375671386719 42.659088134765625 49.3281364440918
C 59.850616455078125 44.90258026123047 48.660335540771484
H 59.978126525878906 45.97592544555664 48.77540588378906
C 60.58500671386719 44.00948715209961 49.413665771484375
H 61.34069061279297 44.411651611328125 50.08356475830078
C 57.99049377441406 45.47905349731445 47.05025100708008
C 56.82135772705078 44.969512939453125 46.33723068237305
C 56.683311462402344 43.9567985534668 45.34762954711914
H 57.48589324951172 43.42652893066406 44.845733642578125
C 55.237060546875 43.86376953125 45.136741638183594
H 54.82035827636719 43.24507522583008 44.34882736206055
C 54.56861114501953 44.74627685546875 45.902862548828125
N 55.56060028076172 45.34147644042969 46.668357849121094
H 55.29338073730469 46.00278854370117 47.384864807128906
C 53.206756591796875 45.10986328125 46.080352783203125
H 52.548667907714844 44.249977111816406 45.96440505981445
C 52.665443420410156 46.143699645996094 46.768836975097656
C 51.6298828125 46.01750564575195 47.68017578125
H 51.12335205078125 45.16123962402344 48.1131477355957
C 51.479835510253906 47.30000686645508 48.11309814453125
H 50.81768035888672 47.64643096923828 48.89971923828125
C 52.44720458984375 48.13662338256836 47.4075813293457
N 53.21403503417969 47.364463806152344 46.6435546875
C 52.699012756347656 49.5592041015625 47.68290328979492
C 53.941200256347656 50.14729309082031 47.687843322753906
C 54.29644012451172 51.52217483520508 47.41297149658203
H 53.4866943359375 52.22509002685547 47.2473030090332
C 55.642822265625 51.734127044677734 47.4545783996582
H 56.14448547363281 52.6858024597168 47.31361770629883
C 56.200706481933594 50.446861267089844 47.441287994384766
N 55.17796325683594 49.62147521972656 47.59531784057617
H 55.41204833984375 48.6387825012207 47.63591766357422
C 57.524070739746094 50.24208450317383 47.19023132324219
H 58.07598876953125 51.15967559814453 46.991912841796875
C 58.19556427001953 48.99379348754883 46.97687530517578
C 59.48896026611328 48.62038803100586 46.65280532836914
H 60.303138732910156 49.31428909301758 46.47160339355469
C 59.60447692871094 47.25572967529297 46.635711669921875
H 60.473297119140625 46.618629455566406 46.507347106933594
C 58.33711242675781 46.80765151977539 47.002445220947266
N 57.49310302734375 47.86250305175781 47.21086120605469
C 49.396888732910156 51.539939880371094 49.76826858520508
C 50.70520782470703 51.982269287109375 49.89747619628906
H 50.966957092285156 52.82570266723633 50.5312614440918
C 51.73839569091797 51.443878173828125 49.15000534057617
H 52.77373504638672 51.715232849121094 49.33975601196289
C 51.54872131347656 50.31857681274414 48.34255599975586
C 49.132713317871094 50.54076385498047 48.756248474121094
H 48.10926818847656 50.22905731201172 48.5639762878418
C 50.192230224609375 49.970977783203125 48.16395568847656
H 49.96508026123047 49.26869201660156 47.3659782409668
N 48.27037048339844 52.232887268066406 50.34354019165039
H 47.44512176513672 51.963111877441406 49.82946014404297
C 48.175201416015625 52.96712112426758 51.515968322753906
O 49.18219757080078 53.204261779785156 52.226318359375
C 46.88273620605469 53.684120178222656 51.825016021728516
C 45.61418151855469 53.109230041503906 51.51107406616211
H 45.61695861816406 52.20421600341797 50.90898132324219
C 44.493858337402344 53.899471282958984 51.8862190246582
C 44.621490478515625 55.12820816040039 52.5853271484375
H 43.82725524902344 55.67866516113281 53.08308792114258
C 45.855072021484375 55.64072799682617 52.95706558227539
H 45.971527099609375 56.59052276611328 53.47271728515625
C 46.97575378417969 54.91720962524414 52.494972229003906
H 47.99168395996094 55.30073547363281 52.54347229003906
C 43.134185791015625 53.491939544677734 51.41443634033203
H 43.19147491455078 52.621551513671875 50.76247024536133
C 41.92826843261719 54.061161041259766 51.633331298828125
H 41.93849182128906 54.965606689453125 52.23979187011719
C 40.63256072998047 53.741756439208984 51.073753356933594
C 40.50908660888672 52.47941207885742 50.27097702026367
H 39.622802734375 52.64340591430664 49.65449142456055
H 40.38250732421875 51.692237854003906 51.01716613769531
H 41.383636474609375 52.25978088378906 49.65502166748047
C 39.58293151855469 54.577354431152344 51.25851058959961
H 39.73504638671875 55.480003356933594 51.84843063354492
C 38.228599548339844 54.544132232666016 50.6922492980957
H 37.939239501953125 53.74608612060547 50.010108947753906
C 37.28450012207031 55.50608825683594 50.971466064453125
H 37.56902313232422 56.31293869018555 51.64523696899414
C 35.869117736816406 55.5969352722168 50.5589485168457
C 35.156005859375 54.314083099365234 50.229732513427734
H 35.027442932128906 54.20655059814453 49.15067672729492
H 35.74839782714844 53.434814453125 50.49131774902344
H 34.213478088378906 54.26368713378906 50.77888488769531
C 35.232261657714844 56.839515686035156 50.58231735229492
H 35.880287170410156 57.71385192871094 50.621280670166016
C 33.825950622558594 56.99083709716797 50.333866119384766
H 33.2741584777832 56.087249755859375 50.078956604003906
C 33.20751190185547 58.14344024658203 50.33718490600586
H 33.81864929199219 59.01419448852539 50.570037841796875
C 31.804611206054688 58.33145523071289 49.9382209777832
H 31.168697357177734 57.44791030883789 49.90850067138672
C 31.260051727294922 59.4805908203125 49.641319274902344
C 32.18413162231445 60.66031265258789 49.653743743896484
H 33.12572479248047 60.3617057800293 49.188236236572266
H 31.708606719970703 61.521114349365234 49.17901611328125
H 32.33197021484375 60.956626892089844 50.69432067871094
C 29.820995330810547 59.70568084716797 49.374629974365234
H 29.491844177246094 60.594364166259766 48.838134765625
C 28.874629974365234 58.75332260131836 49.578548431396484
H 29.18744659423828 57.8334846496582 50.07046127319336
C 27.500381469726562 58.93119812011719 49.198760986328125
H 27.279720306396484 59.664066314697266 48.424076080322266
C 26.473175048828125 58.36174011230469 49.77893829345703
C 26.613494873046875 57.27510452270508 50.814208984375
H 26.346813201904297 57.638221740722656 51.80894088745117
H 26.140003204345703 56.30060577392578 50.677734375
H 27.589981079101562 56.786380767822266 50.823673248291016
C 25.052257537841797 58.51103973388672 49.387855529785156
H 24.985233306884766 59.12834930419922 48.49322509765625
C 23.954139709472656 57.9483642578125 49.92477798461914
H 24.03298568725586 57.41655731201172 50.8718147277832
C 22.56566619873047 57.991539001464844 49.48759078979492
C 22.141414642333984 58.127498626708984 48.15190505981445
C 23.01062774658203 58.22671890258789 46.91058349609375
H 22.51311492919922 57.95497512817383 45.977256774902344
H 23.361282348632812 59.25283432006836 46.78176498413086
H 23.889713287353516 57.602996826171875 47.08565902709961
C 20.66867446899414 58.22187423706055 47.74959182739258
H 20.290199279785156 57.197608947753906 47.73966979980469
H 20.47964859008789 58.651893615722656 46.7637825012207
C 19.868907928466797 59.05256271362305 48.84234619140625
H 18.810646057128906 59.101295471191406 48.57743835449219
H 20.22368621826172 60.045806884765625 49.125308990478516
C 20.037715911865234 58.09072494506836 50.071266174316406
H 19.32718276977539 58.33559036254883 50.86351013183594
H 19.651519775390625 57.10104751586914 49.81857681274414
C 21.47347640991211 57.985008239746094 50.579376220703125
C 21.56977081298828 59.13078308105469 51.59223937988281
H 22.52908706665039 59.16350555419922 52.112918853759766
H 21.385089874267578 60.04258346557617 51.02042007446289
H 20.774272918701172 59.09749984741211 52.3395881652832
C 21.609188079833984 56.69108963012695 51.345787048339844
H 21.70560073852539 55.80431365966797 50.71586608886719
H 22.508586883544922 56.6744270324707 51.964874267578125
H 20.88238525390625 56.691986083984375 52.16078186035156
