207
Triad, Carotenoid-Porphyrin-C60
C 36.1118278503418 42.20780563354492 43.83457565307617
C 40.05714797973633 42.164432525634766 38.752037048339844
C 40.35103988647461 41.216678619384766 40.7733039855957
C 38.982364654541016 40.549015045166016 42.60145568847656
C 38.38771438598633 42.95405960083008 37.28110885620117
C 39.54636001586914 43.241024017333984 38.0257682800293
C 38.379493713378906 40.55398941040039 37.91905975341797
C 38.707401275634766 39.5140266418457 40.451576232910156
C 35.03295135498047 40.686763763427734 42.44098663330078
C 37.771087646484375 41.628536224365234 37.2974853515625
C 36.927337646484375 41.1038932800293 43.67863082885742
C 35.38435745239258 44.56258010864258 38.53245162963867
C 37.50517654418945 44.03371810913086 37.464962005615234
C 34.046661376953125 43.87382125854492 40.37342071533203
C 33.848838806152344 41.465938568115234 40.491676330566406
C 33.724918365478516 42.72743606567383 41.161949157714844
C 35.56732177734375 42.5716667175293 37.486507415771484
C 37.41010665893555 39.71340560913086 38.421199798583984
C 37.53946304321289 39.18215560913086 39.75762176513672
C 35.240604400634766 39.69784927368164 40.28053283691406
C 39.54412841796875 45.087650299072266 42.27962112426758
C 39.19569778442383 45.51601791381836 40.82575988769531
C 40.23783874511719 43.7650260925293 41.968868255615234
C 40.51298522949219 43.694454193115234 40.639625549316406
C 34.823486328125 44.198490142822266 42.44187545776367
C 37.86513137817383 45.95207595825195 40.53498458862305
C 38.27645492553711 41.26786422729492 43.482025146484375
C 36.008644104003906 45.54952621459961 39.36358642578125
C 38.1043586730957 44.923892974853516 38.34111404418945
C 34.64433288574219 44.78477096557617 41.181819915771484
C 39.913848876953125 42.61710739135742 42.71311950683594
C 34.50727081298828 42.51152420043945 38.39223861694336
C 34.28959655761719 41.41901779174805 39.17386245727539
C 36.4608154296875 39.16080856323242 40.65217971801758
C 36.164981842041016 40.30129623413086 38.155609130859375
C 38.327030181884766 45.02713394165039 43.31035232543945
C 37.003082275390625 45.30177688598633 42.7310905456543
C 38.026371002197266 43.63884353637695 43.842952728271484
C 35.98310852050781 44.464900970458984 43.208919525146484
C 34.46969985961914 40.42606735229492 41.19498825073242
C 39.855247497558594 44.71702194213867 39.93953323364258
C 38.82257080078125 42.5471305847168 43.60215759277344
C 36.64908981323242 43.49141311645508 43.894927978515625
C 40.00105667114258 41.37918472290039 42.1004638671875
C 34.28514862060547 42.94123458862305 42.38926315307617
C 36.815696716308594 45.84286117553711 41.42227554321289
C 37.36037063598633 45.750247955322266 39.23774719238281
C 40.56187057495117 42.40037155151367 40.015010833740234
C 39.41510772705078 44.44228744506836 38.60786056518555
C 35.068565368652344 40.2546272277832 39.02598571777344
C 35.67569351196289 45.55014419555664 40.693763732910156
C 34.935577392578125 41.9299201965332 43.078609466552734
C 39.510658264160156 40.90266799926758 38.731143951416016
C 39.73048782348633 40.27653884887695 39.95390701293945
C 38.3912467956543 39.61540603637695 41.75032043457031
C 36.3073616027832 40.22114181518555 42.836551666259766
C 36.1090087890625 43.80121994018555 37.555809020996094
C 34.40396499633789 43.731388092041016 39.03134536743164
C 37.015377044677734 39.43818283081055 41.86983871459961
C 36.403812408447266 41.429439544677734 37.385040283203125
C 40.53038787841797 45.93098831176758 42.94046401977539
N 40.184078216552734 46.44900894165039 44.01241683959961
C 38.724632263183594 46.11076736450195 44.355281829833984
H 38.17802810668945 47.055171966552734 44.29224395751953
H 38.62057876586914 45.68025588989258 45.354522705078125
C 44.69843292236328 46.0767936706543 41.73741912841797
C 43.735679626464844 46.76639938354492 40.96230697631836
H 43.96962356567383 47.38259506225586 40.09792709350586
C 42.38322830200195 46.64999008178711 41.26929473876953
H 41.618141174316406 47.087520599365234 40.63307189941406
C 41.95624542236328 46.055789947509766 42.459922790527344
C 44.304264068603516 45.53532791137695 42.96895980834961
H 44.970462799072266 45.05373001098633 43.68016052246094
C 42.959598541259766 45.68345260620117 43.35417556762695
H 42.49876022338867 45.32756423950195 44.27207565307617
C 46.134315490722656 46.111515045166016 41.285343170166016
C 46.409297943115234 47.01408004760742 40.15723419189453
C 45.97333526611328 46.95816421508789 38.91117477416992
H 45.342533111572266 46.23037338256836 38.41154098510742
C 46.50819396972656 48.0949821472168 38.290916442871094
H 46.42664337158203 48.3057746887207 37.22971725463867
C 47.320404052734375 48.74150466918945 39.202701568603516
N 47.310394287109375 47.9745979309082 40.309417724609375
H 47.911869049072266 48.15341567993164 41.10211944580078
C 48.190269470214844 49.88923263549805 39.05289840698242
H 48.42240524291992 50.2741584777832 38.06100082397461
C 48.996761322021484 50.4363899230957 40.04155731201172
C 49.688201904296875 51.667423248291016 39.986839294433594
H 49.603511810302734 52.3646354675293 39.15982437133789
C 50.2680778503418 51.84000015258789 41.19163513183594
H 50.78977584838867 52.75062942504883 41.46697998046875
C 49.961204528808594 50.81727981567383 42.052364349365234
N 49.2994499206543 49.90719985961914 41.340545654296875
C 50.329715728759766 50.6583137512207 43.4753303527832
C 50.673362731933594 49.40044021606445 44.012691497802734
C 51.83858108520508 48.99879837036133 44.70173263549805
H 52.57798767089844 49.6798210144043 45.11002731323242
C 51.715179443359375 47.64409255981445 44.90166473388672
H 52.35557174682617 46.8980827331543 45.360572814941406
C 50.61061477661133 47.089420318603516 44.172237396240234
N 50.00574493408203 48.24479293823242 43.719303131103516
H 49.09825897216797 48.34049606323242 43.28406524658203
C 50.267642974853516 45.772396087646484 43.9373664855957
H 50.90861892700195 45.00724411010742 44.37281036376953
C 49.01687240600586 45.39042282104492 43.189090728759766
C 48.43394470214844 44.05177688598633 43.09117889404297
H 48.80906295776367 43.20083236694336 43.65011215209961
C 47.232688903808594 44.22066116333008 42.45058822631836
H 46.48136520385742 43.45846939086914 42.27229309082031
C 47.163307189941406 45.545528411865234 42.07343292236328
N 48.19353485107422 46.25075912475586 42.54805374145508
C 49.476707458496094 53.8123664855957 46.24953842163086
C 49.91458511352539 52.55495834350586 46.70563888549805
H 49.95499038696289 52.472713470458984 47.78876876831055
C 50.20339584350586 51.597225189208984 45.765594482421875
H 50.446266174316406 50.58530044555664 46.07958984375
C 50.054237365722656 51.812747955322266 44.37826919555664
C 49.386165618896484 54.09260940551758 44.8883056640625
H 49.052490234375 55.07047653198242 44.550682067871094
C 49.649288177490234 53.096248626708984 43.95616912841797
H 49.50150680541992 53.34206771850586 42.907691955566406
N 49.395023345947266 54.8252067565918 47.21970748901367
H 49.98830795288086 54.6744499206543 48.02180862426758
C 48.602012634277344 55.94796371459961 47.26933288574219
O 47.888763427734375 56.22829055786133 46.34865951538086
C 48.609580993652344 56.867679595947266 48.486568450927734
C 49.44585418701172 56.53629684448242 49.59757995605469
H 50.060699462890625 55.645938873291016 49.70149230957031
C 49.61088943481445 57.43758010864258 50.63816452026367
C 48.88803482055664 58.63572311401367 50.71419906616211
H 49.03019714355469 59.30318069458008 51.56028747558594
C 48.06947326660156 58.96223068237305 49.63187026977539
H 47.50808334350586 59.89274215698242 49.608245849609375
C 47.88475036621094 58.08413314819336 48.536808013916016
H 47.08695602416992 58.36056900024414 47.852210998535156
C 50.61888122558594 57.09010696411133 51.653472900390625
H 51.07769775390625 56.12569808959961 51.44057846069336
C 51.121910095214844 57.84457015991211 52.704185485839844
H 50.72966384887695 58.845829010009766 52.876068115234375
C 52.18559646606445 57.48521041870117 53.58723068237305
C 53.11743927001953 58.572391510009766 53.909446716308594
H 52.81794357299805 59.5384635925293 53.4977912902832
H 54.059146881103516 58.12894058227539 53.57929611206055
H 53.35088348388672 58.72103500366211 54.965797424316406
C 52.292724609375 56.28914260864258 54.193058013916016
H 51.588348388671875 55.50223922729492 53.92740249633789
C 53.40853500366211 55.92136764526367 55.09866714477539
H 54.24692153930664 56.59366989135742 55.27484130859375
C 53.39323043823242 54.74464797973633 55.74039077758789
H 52.57974624633789 54.0460090637207 55.55044937133789
C 54.44060516357422 54.17946243286133 56.603363037109375
C 53.99397277832031 53.07072067260742 57.46303176879883
H 54.462520599365234 52.177303314208984 57.04502487182617
H 54.33293151855469 53.15403366088867 58.497745513916016
H 52.91102981567383 52.930789947509766 57.45166778564453
C 55.737667083740234 54.48428726196289 56.63181686401367
H 56.06817626953125 55.290103912353516 55.978092193603516
C 56.803104400634766 53.91024398803711 57.45529556274414
H 56.577911376953125 53.24033737182617 58.2838134765625
C 58.1336669921875 54.18832015991211 57.3142204284668
H 58.527008056640625 55.06435775756836 56.80064010620117
C 59.047725677490234 53.554073333740234 58.21550750732422
H 58.59910583496094 53.219791412353516 59.14980697631836
C 60.39887619018555 53.6018180847168 58.09433364868164
C 61.109886169433594 54.371219635009766 56.93342971801758
H 62.19131851196289 54.25587844848633 56.83515930175781
H 60.79381561279297 53.81440353393555 56.048828125
H 60.880069732666016 55.43839645385742 56.96135330200195
C 61.27408218383789 52.96933364868164 59.1205940246582
H 62.30864334106445 52.89225387573242 58.789432525634766
C 60.94757080078125 52.5483283996582 60.2807731628418
H 59.929229736328125 52.755184173583984 60.606536865234375
C 61.85002517700195 52.03789138793945 61.32455825805664
H 62.862369537353516 52.4390983581543 61.31365203857422
C 61.59716033935547 51.2026481628418 62.254730224609375
C 60.23418045043945 50.59922409057617 62.4594841003418
H 59.855140686035156 50.27995681762695 61.48640823364258
H 60.42635726928711 49.64069747924805 62.946075439453125
H 59.5156364440918 51.241268157958984 62.973228454589844
C 62.61091232299805 50.7280387878418 63.24245834350586
H 63.56332778930664 50.50200271606445 62.76525115966797
C 62.445858001708984 50.52701950073242 64.59014129638672
H 61.463836669921875 50.82375717163086 64.95551300048828
C 63.41816329956055 49.874263763427734 65.52112579345703
C 64.70988464355469 50.34120559692383 65.65812683105469
C 65.3381576538086 51.55510330200195 65.15182495117188
H 65.75471496582031 52.121585845947266 65.98731994628906
H 65.97261047363281 51.34565353393555 64.28807067871094
H 64.57177734375 52.216556549072266 64.74241638183594
C 65.74181365966797 49.748844146728516 66.59920501708984
H 65.9442367553711 50.44516372680664 67.41568756103516
H 66.67312622070312 49.82451248168945 66.03404235839844
C 65.3484115600586 48.37892532348633 67.23165130615234
H 65.94380950927734 48.336299896240234 68.14606475830078
H 65.5369873046875 47.47671127319336 66.64605712890625
C 63.7615852355957 48.427799224853516 67.4712142944336
H 63.3886833190918 47.55424880981445 68.01002502441406
H 63.44231033325195 49.209712982177734 68.16342163085938
C 62.93265151977539 48.6712532043457 66.23522186279297
C 62.963565826416016 47.36508560180664 65.42257690429688
H 62.63682174682617 46.479000091552734 65.9708023071289
H 62.41176223754883 47.41299057006836 64.4814682006836
H 64.02438354492188 47.1710319519043 65.25093078613281
C 61.472660064697266 48.71297073364258 66.69429016113281
H 61.273895263671875 49.52914047241211 67.39201354980469
H 60.90146255493164 48.76773452758789 65.76519775390625
H 61.15561294555664 47.77434158325195 67.15355682373047
