207
Triad, Carotenoid-Porphyrin-C60
C 60.30484390258789 45.012481689453125 44.813011169433594
C 56.86179733276367 50.34291458129883 46.05472946166992
C 58.901546478271484 50.23997497558594 44.88017654418945
C 60.041324615478516 48.42305374145508 43.767398834228516
C 55.07282257080078 48.99881362915039 46.81303024291992
C 56.148963928222656 49.78721237182617 47.083831787109375
C 55.43941879272461 49.38057327270508 44.4434814453125
C 57.876708984375 49.10822677612305 42.951778411865234
C 58.59269332885742 44.714447021484375 43.38452911376953
C 54.76329040527344 48.75059127807617 45.479427337646484
C 60.32255554199219 46.07410430908203 43.85419845581055
C 55.26875305175781 45.60432815551758 47.79822540283203
C 54.99863815307617 47.96133041381836 47.73949432373047
C 56.512428283691406 43.92884063720703 46.664249420166016
C 56.4085578918457 44.17236328125 44.28811264038086
C 57.049537658691406 43.63002014160156 45.444095611572266
C 54.277225494384766 46.5041618347168 45.92420196533203
C 55.536991119384766 48.44460678100586 43.40300369262695
C 56.7651252746582 48.25954055786133 42.774192810058594
C 56.50299072265625 45.85805130004883 42.76376724243164
C 60.30058670043945 48.191009521484375 48.368690490722656
C 58.830509185791016 48.26781463623047 48.90046691894531
C 60.142459869384766 49.13842010498047 47.19471740722656
C 58.92677688598633 49.84223556518555 47.27470016479492
C 58.79722213745117 43.95610427856445 46.88795852661133
C 58.08677673339844 47.09157943725586 49.239341735839844
C 60.74024963378906 47.329105377197266 44.25476837158203
C 56.36738967895508 45.808929443359375 48.667293548583984
C 56.02259826660156 48.16486740112305 48.63555908203125
C 57.565608978271484 44.05080795288086 47.5861701965332
C 60.6348762512207 48.91810607910156 45.90119552612305
C 54.67422866821289 45.21701431274414 45.65474319458008
C 55.27801513671875 44.97437286376953 44.433570861816406
C 57.22325134277344 46.98023223876953 42.41513442993164
C 54.90782165527344 47.27769088745117 43.734825134277344
C 60.82351303100586 46.78797149658203 47.99314880371094
C 59.81575393676758 45.67058181762695 48.21304702758789
C 61.15572738647461 46.577056884765625 46.511417388916016
C 59.92380905151367 44.81639862060547 47.18376922607422
C 57.21696090698242 44.74718475341797 43.2743034362793
C 58.18101501464844 49.295074462890625 48.280662536621094
C 61.14756393432617 47.646244049072266 45.548248291015625
C 60.654850006103516 45.35548400878906 46.113624572753906
C 60.04969024658203 49.42983627319336 44.75725173950195
C 58.43387985229492 43.66804885864258 45.55853271484375
C 58.593013763427734 45.822532653808594 48.873085021972656
C 56.725929260253906 47.063228607177734 49.09056854248047
C 58.30272674560547 50.34053039550781 46.11723327636719
C 56.756813049316406 49.25303268432617 48.21211624145508
C 55.362613677978516 45.97732925415039 43.469512939453125
C 57.50741195678711 45.04263687133789 48.50069046020508
C 59.18824768066406 44.254539489746094 44.56997299194336
C 56.564002990722656 50.14643859863281 44.73541259765625
C 57.79851531982422 50.09056854248047 44.04166793823242
C 58.991737365722656 48.336326599121094 42.804569244384766
C 59.2843017578125 45.88480758666992 42.94508361816406
C 54.64539337158203 46.73796844482422 47.25602340698242
C 55.288578033447266 44.67375946044922 46.77793884277344
C 58.57635498046875 47.020484924316406 42.475250244140625
C 54.39753341674805 47.49150085449219 44.98118209838867
C 61.28443145751953 48.65503692626953 49.47205352783203
N 62.19532775878906 47.81576156616211 49.78847122192383
C 62.089881896972656 46.60282516479492 48.91957473754883
H 61.88718795776367 45.76447296142578 49.590938568115234
H 63.00214767456055 46.2948112487793 48.402320861816406
C 60.059547424316406 51.846946716308594 52.044227600097656
C 59.98782730102539 51.901580810546875 50.65140914916992
H 59.58919143676758 52.77875900268555 50.148197174072266
C 60.493404388427734 50.93935012817383 49.814727783203125
H 60.45195770263672 51.03453063964844 48.732696533203125
C 60.9852180480957 49.77836227416992 50.371604919433594
C 60.4688720703125 50.687843322753906 52.612815856933594
H 60.463104248046875 50.58486557006836 53.69491195678711
C 60.93408966064453 49.63695526123047 51.756534576416016
H 61.26886749267578 48.696754455566406 52.187252044677734
C 59.71922302246094 53.05236053466797 52.82520294189453
C 59.100730895996094 54.21373748779297 52.206146240234375
C 59.64387512207031 55.19599533081055 51.4161262512207
H 60.67313003540039 55.28725051879883 51.08517837524414
C 58.54390335083008 56.15568923950195 51.27326583862305
H 58.530574798583984 57.14335632324219 50.824310302734375
C 57.44437026977539 55.81486511230469 51.983154296875
N 57.79768371582031 54.55658721923828 52.441505432128906
H 57.22918701171875 53.98603820800781 53.05257797241211
C 56.1500358581543 56.434837341308594 52.24394607543945
H 56.00345230102539 57.33961486816406 51.65589141845703
C 55.21696472167969 56.28770065307617 53.23268127441406
C 54.055076599121094 57.09318542480469 53.56287384033203
H 53.92197036743164 58.02123260498047 53.01676559448242
C 53.615482330322266 56.62807083129883 54.75248336791992
H 52.78608703613281 57.046749114990234 55.3128776550293
C 54.30913543701172 55.38822937011719 54.969852447509766
N 55.32810592651367 55.183860778808594 54.09415817260742
C 54.090938568115234 54.304656982421875 55.957462310791016
C 55.08012008666992 53.879066467285156 56.82358932495117
C 55.08835983276367 53.969966888427734 58.25822830200195
H 54.31587600708008 54.299705505371094 58.94507598876953
C 56.36091995239258 53.719085693359375 58.67431640625
H 56.6607666015625 53.85845947265625 59.70770263671875
C 57.238983154296875 53.46067810058594 57.547874450683594
N 56.319580078125 53.35185623168945 56.5124397277832
H 56.57962417602539 53.1376953125 55.5592155456543
C 58.554412841796875 53.18742370605469 57.53289031982422
H 59.06822967529297 53.340694427490234 58.48074722290039
C 59.42205047607422 52.89886474609375 56.32695388793945
C 60.883155822753906 52.80762481689453 56.12403869628906
H 61.5202522277832 52.7790412902832 57.001827239990234
C 61.0608024597168 52.816890716552734 54.74920654296875
H 61.969696044921875 52.81465148925781 54.15664291381836
C 59.86309051513672 52.9162712097168 54.1826171875
N 58.89877700805664 52.987091064453125 55.09122848510742
C 50.206024169921875 52.3518180847168 56.206687927246094
C 51.245628356933594 51.930633544921875 57.03211212158203
H 51.03078842163086 51.167415618896484 57.775691986083984
C 52.53628921508789 52.54879379272461 56.968055725097656
H 53.331787109375 52.180233001708984 57.61064529418945
C 52.76864242553711 53.628334045410156 56.055213928222656
C 50.42795944213867 53.45261764526367 55.349815368652344
H 49.65348815917969 53.73616027832031 54.64174270629883
C 51.682247161865234 54.060882568359375 55.27256774902344
H 51.83659362792969 54.78916931152344 54.48051071166992
N 48.92338180541992 51.7174072265625 56.20834732055664
H 48.6734619140625 51.313411712646484 55.31817626953125
C 48.07692337036133 51.72544860839844 57.304962158203125
O 48.47470474243164 52.12501907348633 58.3698844909668
C 46.663307189941406 51.15769958496094 57.17496871948242
C 46.1999626159668 50.496368408203125 56.03142166137695
H 46.84927749633789 50.05653762817383 55.27875900268555
C 44.84444046020508 50.28752517700195 55.88861846923828
C 43.9559211730957 50.726924896240234 56.808773040771484
H 42.980384826660156 50.26215744018555 56.690921783447266
C 44.3321647644043 51.33488845825195 57.98871994018555
H 43.578365325927734 51.44954299926758 58.763450622558594
C 45.72877883911133 51.555625915527344 58.1583366394043
H 46.16255187988281 52.04731369018555 59.02531433105469
C 44.27942657470703 49.727840423583984 54.62741470336914
H 45.04961395263672 49.33494567871094 53.96532440185547
C 43.010589599609375 49.46244812011719 54.258140563964844
H 42.18992614746094 49.62009048461914 54.95641326904297
C 42.64385223388672 49.04718780517578 52.918426513671875
C 43.722984313964844 49.337158203125 51.85358810424805
H 44.31949234008789 50.230308532714844 52.05088806152344
H 43.248043060302734 49.52255630493164 50.887916564941406
H 44.409732818603516 48.48822021484375 51.86558532714844
C 41.46537399291992 48.515296936035156 52.66161346435547
H 40.8116455078125 48.37195587158203 53.520687103271484
C 41.006507873535156 48.180328369140625 51.305355072021484
H 41.77306365966797 47.94464111328125 50.56863021850586
C 39.72916030883789 48.183170318603516 50.986812591552734
H 38.95920181274414 48.14535140991211 51.75600051879883
C 39.21775436401367 47.95036697387695 49.6434326171875
C 40.12408447265625 48.49441146850586 48.52086639404297
H 40.63117218017578 47.639102935791016 48.06945037841797
H 39.463478088378906 48.95682907104492 47.784507751464844
H 40.852691650390625 49.28221130371094 48.7232666015625
C 38.155616760253906 47.20427703857422 49.39124298095703
H 37.652774810791016 46.867164611816406 50.29646682739258
C 37.58063888549805 46.71531677246094 48.083763122558594
H 37.94668960571289 46.96844482421875 47.08985137939453
C 36.4624137878418 46.02226257324219 48.204498291015625
H 36.110103607177734 45.73340606689453 49.19361877441406
C 35.52613067626953 45.751407623291016 47.05045700073242
H 35.805389404296875 45.82253646850586 46.00027847290039
C 34.35038375854492 45.16038131713867 47.19662857055664
C 33.82045364379883 44.77592086791992 48.54725646972656
H 32.73210144042969 44.69222640991211 48.5165901184082
H 34.204795837402344 43.771419525146484 48.736263275146484
H 34.04644012451172 45.57026672363281 49.26168441772461
C 33.39545440673828 44.865684509277344 46.0269775390625
H 32.420921325683594 44.54875564575195 46.39543914794922
C 33.409889221191406 45.158634185791016 44.75217056274414
H 34.27400588989258 45.63824462890625 44.2947883605957
C 32.2977294921875 44.79026794433594 43.89678955078125
H 31.31246566772461 44.81216049194336 44.36014175415039
C 32.33393478393555 44.45130920410156 42.60396194458008
C 33.56513977050781 44.324684143066406 41.729286193847656
H 33.60648727416992 45.29866027832031 41.23722839355469
H 34.48637390136719 44.2103157043457 42.30436325073242
H 33.51996994018555 43.473575592041016 41.0466194152832
C 31.094451904296875 44.18208694458008 41.87079620361328
H 30.22430992126465 44.307823181152344 42.513431549072266
C 30.926807403564453 43.94254684448242 40.52250671386719
H 31.755680084228516 43.7243766784668 39.8507194519043
C 29.687654495239258 43.89346694946289 39.81393051147461
C 28.995256423950195 42.752464294433594 39.496246337890625
C 29.28175163269043 41.415985107421875 40.021549224853516
H 29.667043685913086 41.571468353271484 41.03141784667969
H 28.39591407775879 40.79901885986328 40.18619918823242
H 29.957551956176758 40.79354476928711 39.431358337402344
C 27.73893165588379 42.76002502441406 38.68174362182617
H 26.872108459472656 42.682857513427734 39.34138488769531
H 27.760290145874023 41.871620178222656 38.047122955322266
C 27.560638427734375 44.051422119140625 37.81260299682617
H 26.6715145111084 44.139671325683594 37.18479919433594
H 28.345088958740234 43.995574951171875 37.05498504638672
C 27.755285263061523 45.26222610473633 38.78977966308594
H 27.547046661376953 46.22031021118164 38.30897521972656
H 26.986968994140625 45.1146240234375 39.551597595214844
C 29.17853355407715 45.278133392333984 39.343502044677734
C 30.019489288330078 46.0150260925293 38.3516960144043
H 31.04961395263672 46.157958984375 38.68467712402344
H 30.20415496826172 45.4173469543457 37.45663070678711
H 29.635141372680664 46.93513870239258 37.90657043457031
C 29.042829513549805 46.28456115722656 40.46739959716797
H 30.025949478149414 46.50518798828125 40.888423919677734
H 28.609464645385742 47.273353576660156 40.30323791503906
H 28.496212005615234 45.88630676269531 41.32475662231445
