207
Triad, Carotenoid-Porphyrin-C60
C 43.698787689208984 43.410709381103516 52.81756591796875
C 45.14638900756836 45.607540130615234 58.8427848815918
C 44.53504180908203 46.79523849487305 57.02560043334961
C 43.4055061340332 46.32014846801758 54.90769958496094
C 45.03170394897461 43.35798645019531 59.70461654663086
C 45.76565933227539 44.45060729980469 59.29765701293945
C 42.985557556152344 44.51435852050781 59.195281982421875
C 42.2616081237793 45.940185546875 56.96739196777344
C 41.873653411865234 42.807960510253906 53.94830322265625
C 43.6290397644043 43.37271499633789 59.69003677368164
C 43.11613464355469 44.56654739379883 53.29988098144531
C 45.455684661865234 40.353302001953125 57.66202926635742
C 45.73329544067383 42.20954132080078 59.227989196777344
C 44.30351638793945 40.033077239990234 55.54393768310547
C 42.078487396240234 40.9232063293457 55.520748138427734
C 43.15143585205078 40.44404983520508 54.7965202331543
C 43.57334899902344 41.11765670776367 58.744842529296875
C 41.86463928222656 44.15814208984375 58.47513961791992
C 41.47798156738281 44.8644905090332 57.3527946472168
C 41.011375427246094 42.75578308105469 56.21199417114258
C 47.77309799194336 44.87076950073242 55.12337875366211
C 47.88870620727539 44.04339599609375 56.365333557128906
C 46.83238983154297 45.977596282958984 55.63497543334961
C 46.706634521484375 45.83945083618164 57.011634826660156
C 45.006622314453125 41.133121490478516 53.66889572143555
C 47.66680145263672 42.660457611083984 56.31001281738281
C 43.855438232421875 45.63013458251953 53.78843688964844
C 46.55119323730469 40.78797149658203 56.92837142944336
C 46.855892181396484 42.631595611572266 58.52479934692383
C 45.39854049682617 40.476341247558594 54.831993103027344
C 45.677452087402344 46.25040054321289 54.942779541015625
C 43.17039489746094 40.43516159057617 57.6136589050293
C 42.051876068115234 40.905296325683594 56.90324020385742
C 41.04412841796875 44.16572570800781 56.21204376220703
C 41.787513732910156 42.72618103027344 58.53636932373047
C 47.33076858520508 44.096920013427734 53.80061721801758
C 46.96256637573242 42.58839416503906 53.97256088256836
C 45.89332962036133 44.4890251159668 53.290409088134766
C 45.791316986083984 42.23066711425781 53.284339904785156
C 41.43772506713867 42.085296630859375 55.07490921020508
C 47.39717102050781 44.726436614990234 57.45996856689453
C 45.224674224853516 45.545188903808594 53.78192138671875
C 45.123687744140625 43.38982391357422 52.8709831237793
C 44.55849075317383 46.75676727294922 55.6210823059082
C 43.6612663269043 41.19929122924805 53.65766906738281
C 47.26517105102539 41.946746826171875 55.173370361328125
C 47.240478515625 41.93792724609375 57.393104553222656
C 45.61607360839844 46.2874641418457 57.75125503540039
C 46.89820861816406 44.017356872558594 58.59088134765625
C 41.409767150878906 42.062477111816406 57.35073471069336
C 46.571388244628906 40.83564758300781 55.544517517089844
C 42.95675277709961 42.3337287902832 53.17683410644531
C 43.70692443847656 45.688106536865234 58.8409423828125
C 43.378360748291016 46.33484649658203 57.66529083251953
C 42.237571716308594 45.97454833984375 55.594329833984375
C 41.94401550292969 44.212242126464844 53.970672607421875
C 45.02406311035156 41.12395477294922 58.73760223388672
C 44.312774658203125 40.00568389892578 56.958770751953125
C 41.490047454833984 44.939151763916016 55.09312438964844
C 42.892879486083984 42.245140075683594 59.19975662231445
C 49.09813690185547 45.55916213989258 54.68137741088867
N 49.5149040222168 45.22102737426758 53.50222396850586
C 48.51264953613281 44.32394790649414 52.781333923339844
H 48.9200325012207 43.40645980834961 52.34900665283203
H 48.14519119262695 44.879127502441406 51.91450119018555
C 51.11763000488281 48.88572692871094 56.58848571777344
C 51.82234191894531 47.709251403808594 56.33174514770508
H 52.85973358154297 47.65202713012695 56.65129470825195
C 51.1837272644043 46.53122329711914 55.76913070678711
H 51.64198303222656 45.557308197021484 55.61726760864258
C 49.856597900390625 46.6172981262207 55.44357681274414
C 49.80195236206055 48.91932678222656 56.204185485839844
H 49.39016342163086 49.924102783203125 56.25335693359375
C 49.19091033935547 47.82986831665039 55.655643463134766
H 48.179656982421875 47.95497512817383 55.27711486816406
C 51.826297760009766 50.06352996826172 57.24916458129883
C 53.26957321166992 49.8992919921875 57.51765441894531
C 54.062049865722656 49.14420700073242 58.35731506347656
H 53.78974151611328 48.352203369140625 59.04710388183594
C 55.41801071166992 49.70783615112305 58.35472869873047
H 56.24911880493164 49.34426498413086 58.94995880126953
C 55.428321838378906 50.69754409790039 57.40277862548828
N 54.138587951660156 50.81644058227539 56.96044921875
H 53.85292053222656 51.58686828613281 56.37141799926758
C 56.487247467041016 51.56248092651367 57.009681701660156
H 57.47174072265625 51.19148635864258 57.290855407714844
C 56.451045989990234 52.799217224121094 56.39493179321289
C 57.61195373535156 53.49586486816406 55.907196044921875
H 58.57738494873047 53.29960632324219 56.36178207397461
C 57.18687438964844 54.592105865478516 55.17235565185547
H 57.8315315246582 55.342830657958984 54.72732925415039
C 55.76816177368164 54.48878479003906 55.24643325805664
N 55.31877136230469 53.47650909423828 55.99053955078125
C 54.84634017944336 55.41006088256836 54.690948486328125
C 53.69200897216797 55.72713088989258 55.42586135864258
C 53.236087799072266 57.044925689697266 55.83014678955078
H 53.7938232421875 57.92161178588867 55.517765045166016
C 52.137779235839844 56.84647750854492 56.703826904296875
H 51.58370590209961 57.553157806396484 57.312782287597656
C 51.80985641479492 55.47941207885742 56.788169860839844
N 52.7709846496582 54.89453887939453 55.99740219116211
H 52.86984634399414 53.88877868652344 56.02565002441406
C 50.85549545288086 54.85331726074219 57.52661895751953
H 50.35934066772461 55.5220832824707 58.2284049987793
C 50.6950798034668 53.357765197753906 57.613468170166016
C 49.86456298828125 52.560951232910156 58.50386047363281
H 49.0704460144043 52.952484130859375 59.13100051879883
C 50.20850372314453 51.267662048339844 58.36708450317383
H 49.79542922973633 50.39934158325195 58.869693756103516
C 51.18161392211914 51.23830795288086 57.41868209838867
N 51.49125289916992 52.45625305175781 56.99318313598633
C 55.24542236328125 56.70975875854492 50.506195068359375
C 54.18888473510742 57.091976165771484 51.314247131347656
H 53.43057632446289 57.75271224975586 50.901981353759766
C 53.99523162841797 56.63210678100586 52.638736724853516
H 53.17093276977539 57.01359939575195 53.235870361328125
C 54.96354293823242 55.81587600708008 53.21137619018555
C 56.126651763916016 55.83012008666992 51.07912826538086
H 56.96156692504883 55.494625091552734 50.46926498413086
C 56.09769058227539 55.46395492553711 52.445560455322266
H 56.9107551574707 54.86812210083008 52.85235595703125
N 55.477603912353516 57.2501106262207 49.215553283691406
H 55.47971725463867 56.58713912963867 48.45492935180664
C 55.49925231933594 58.53474044799805 48.884613037109375
O 55.596702575683594 59.393314361572266 49.769290924072266
C 55.45755386352539 58.8049430847168 47.4249153137207
C 54.865726470947266 57.83224105834961 46.561771392822266
H 54.390525817871094 56.92153549194336 46.917236328125
C 54.72994613647461 58.09122848510742 45.20085525512695
C 55.31333541870117 59.24577713012695 44.65928649902344
H 55.27328872680664 59.51945114135742 43.608062744140625
C 56.04279327392578 60.099788665771484 45.490264892578125
H 56.38664245605469 61.073970794677734 45.15214538574219
C 56.10300064086914 59.868106842041016 46.802642822265625
H 56.565853118896484 60.60329818725586 47.45596694946289
C 53.935054779052734 57.16707229614258 44.284645080566406
H 53.50313186645508 56.31100082397461 44.80087661743164
C 53.6069221496582 57.35299301147461 42.99164581298828
H 53.91944122314453 58.2595100402832 42.47542190551758
C 52.828948974609375 56.6013069152832 42.04966354370117
C 52.935142517089844 57.0412712097168 40.70121383666992
H 52.076175689697266 56.74740219116211 40.09435272216797
H 53.8757438659668 56.66623306274414 40.29245376586914
H 52.97755813598633 58.132442474365234 40.7040901184082
C 51.930789947509766 55.63716506958008 42.38374328613281
H 51.96352767944336 55.409664154052734 43.448219299316406
C 51.16425704956055 54.77646255493164 41.502994537353516
H 51.648807525634766 54.44352340698242 40.586326599121094
C 49.983577728271484 54.33262252807617 41.907432556152344
H 49.65245819091797 54.70970153808594 42.87392044067383
C 49.15644836425781 53.36814498901367 41.25920486450195
C 47.77714920043945 53.1652717590332 41.80263900756836
H 47.35432434082031 52.1796760559082 41.597007751464844
H 47.797664642333984 53.46245574951172 42.85321807861328
H 47.22959899902344 53.956321716308594 41.286033630371094
C 49.52793502807617 52.53976058959961 40.28877258300781
H 50.58226013183594 52.60968017578125 40.025264739990234
C 48.81644821166992 51.42356872558594 39.592918395996094
H 47.76476287841797 51.2235107421875 39.79256820678711
C 49.474037170410156 50.698734283447266 38.712684631347656
H 50.512908935546875 50.87799072265625 38.43968200683594
C 48.832557678222656 49.59117126464844 37.96792984008789
H 47.81535339355469 49.26651382446289 38.182003021240234
C 49.196372985839844 48.979976654052734 36.86699676513672
C 50.441951751708984 49.17842102050781 36.09686279296875
H 50.337772369384766 50.05612564086914 35.45558547973633
H 51.273155212402344 49.34770965576172 36.7845458984375
H 50.75210952758789 48.29175567626953 35.540000915527344
C 48.264137268066406 48.08514404296875 36.21940994262695
H 48.2656364440918 48.182979583740234 35.13481140136719
C 47.477622985839844 47.101558685302734 36.71783447265625
H 47.486427307128906 46.90740966796875 37.78935241699219
C 46.77539825439453 46.11454391479492 35.86088562011719
H 47.013511657714844 46.008148193359375 34.8035774230957
C 45.93840789794922 45.18280029296875 36.32881164550781
C 45.650535583496094 44.9167594909668 37.81193923950195
H 46.600399017333984 44.61214065551758 38.25627517700195
H 45.27241516113281 45.8393669128418 38.25722885131836
H 44.85615921020508 44.168941497802734 37.858707427978516
C 45.304664611816406 44.23402786254883 35.37894058227539
H 44.98017883300781 43.312660217285156 35.86030578613281
C 45.071598052978516 44.31974411010742 34.00313949584961
H 45.418121337890625 45.25114440917969 33.55778884887695
C 44.23351287841797 43.3693962097168 33.145084381103516
C 44.25200271606445 42.01821517944336 33.2103271484375
C 45.180423736572266 41.228668212890625 34.03509521484375
H 45.95173645019531 41.75368118286133 34.602455139160156
H 44.57539749145508 40.672569274902344 34.75423049926758
H 45.657752990722656 40.45881652832031 33.42522048950195
C 43.33029556274414 41.148624420166016 32.49941635131836
H 42.5933723449707 40.69532012939453 33.165687561035156
H 43.90451431274414 40.29599380493164 32.130950927734375
C 42.67564010620117 41.81703186035156 31.251806259155273
H 42.00419998168945 41.13902282714844 30.7208309173584
H 43.422367095947266 41.944576263427734 30.465299606323242
C 42.063446044921875 43.1217155456543 31.792875289916992
H 41.53424072265625 43.658912658691406 31.003047943115234
H 41.388458251953125 42.94804000854492 32.63352584838867
C 43.195655822753906 44.05705261230469 32.20616912841797
C 43.89055252075195 44.59723663330078 30.968473434448242
H 43.18551254272461 45.15517807006836 30.348724365234375
H 44.61317825317383 45.3861083984375 31.187461853027344
H 44.426429748535156 43.84709930419922 30.38315200805664
C 42.43073654174805 45.198978424072266 32.859806060791016
H 42.038795471191406 44.87083053588867 33.824771881103516
H 42.98989486694336 46.133914947509766 32.935302734375
H 41.550628662109375 45.45542907714844 32.266414642333984
