207
Triad, Carotenoid-Porphyrin-C60
C 47.7194709777832 57.15220642089844 49.932762145996094
C 48.68120193481445 51.648101806640625 46.671913146972656
C 50.1541633605957 52.83912658691406 47.80438232421875
C 50.133060455322266 54.52349853515625 49.60338592529297
C 46.26139450073242 51.41923522949219 46.49720001220703
C 47.502559661865234 51.78858184814453 45.93424987792969
C 47.376834869384766 50.905029296875 48.54063415527344
C 49.23989486694336 52.37928009033203 50.067481994628906
C 46.73634719848633 55.76097106933594 51.408294677734375
C 46.17605972290039 50.99717712402344 47.80126190185547
C 48.723392486572266 56.33966827392578 50.458091735839844
C 43.955997467041016 54.05622100830078 46.84480285644531
C 45.24406051635742 52.25641632080078 45.99327087402344
C 43.85747146606445 55.715354919433594 48.61846923828125
C 44.59078598022461 54.842811584472656 50.779090881347656
C 44.384212493896484 55.93767547607422 49.92101287841797
C 44.15926742553711 52.279144287109375 48.15161895751953
C 47.0338249206543 51.38867950439453 49.84632873535156
C 47.9679069519043 52.03209686279297 50.60071563720703
C 46.189083099365234 53.41828918457031 51.52136993408203
C 48.90776443481445 56.17456817626953 45.46131896972656
C 47.821407318115234 55.293067932128906 44.910186767578125
C 49.68184280395508 55.111175537109375 46.13141632080078
C 49.38132095336914 53.841583251953125 45.71045684814453
C 45.45127487182617 57.33191680908203 48.47721862792969
C 46.47842025756836 55.520965576171875 45.07996368408203
C 49.754695892333984 55.864646911621094 49.591392517089844
C 44.5045051574707 54.958953857421875 45.97271728515625
C 45.92849349975586 53.162269592285156 45.16015625
C 44.4832649230957 56.59956359863281 47.76591491699219
C 50.17050552368164 55.266822814941406 47.444488525390625
C 43.72014236450195 53.311195373535156 48.981971740722656
C 44.25082015991211 53.50872802734375 50.29151916503906
C 47.5578727722168 53.1082763671875 51.43079376220703
C 45.712589263916016 51.67876434326172 49.89246368408203
C 48.43508529663086 57.36962890625 46.352333068847656
C 46.91989517211914 57.463356018066406 46.5218505859375
C 48.868717193603516 57.284934997558594 47.789085388183594
C 46.67792892456055 57.61237335205078 47.869483947753906
C 45.78188705444336 54.7576904296875 51.5087890625
C 48.19993209838867 53.92329406738281 45.024131774902344
C 49.762516021728516 56.346458435058594 48.27052307128906
C 47.7857551574707 57.58336639404297 48.5966796875
C 50.33993148803711 54.14197540283203 48.28766632080078
C 45.33199691772461 56.92155456542969 49.80243682861328
C 46.03647232055664 56.573204040527344 45.886451721191406
C 45.51664352416992 54.47809600830078 45.18669128417969
C 49.625545501708984 52.705078125 46.510887145996094
C 47.2288703918457 52.88786315917969 45.15827178955078
C 45.262935638427734 52.68434143066406 50.724632263183594
C 44.80691909790039 56.186378479003906 46.44476318359375
C 46.510189056396484 56.81890869140625 50.56254577636719
C 48.64369583129883 51.188499450683594 48.003517150878906
C 49.4979362487793 51.98956298828125 48.732391357421875
C 49.52717208862305 53.682586669921875 50.51484680175781
C 48.1274299621582 55.47039794921875 51.373008728027344
C 44.19276809692383 52.69158172607422 46.81121826171875
C 43.57956314086914 54.44255065917969 48.118568420410156
C 48.47987747192383 54.118988037109375 51.3262939453125
C 45.15218734741211 51.439903259277344 48.61011505126953
C 49.6005744934082 56.821815490722656 44.28437042236328
N 49.75722122192383 58.041526794433594 44.444847106933594
C 49.09507369995117 58.61125946044922 45.65751647949219
H 48.286067962646484 59.281944274902344 45.35694122314453
H 49.780635833740234 59.12481689453125 46.33642578125
C 51.36434555053711 54.30589294433594 41.215476989746094
C 52.03873825073242 54.50883483886719 42.39190673828125
H 52.965457916259766 54.009437561035156 42.66276550292969
C 51.512264251708984 55.432533264160156 43.33741760253906
H 51.955204010009766 55.64733123779297 44.30656433105469
C 50.218021392822266 56.08568572998047 43.166290283203125
C 50.12788009643555 54.95745086669922 41.004486083984375
H 49.6480598449707 54.972572326660156 40.02923583984375
C 49.5680046081543 55.789268493652344 41.97828674316406
H 48.57735824584961 56.21092224121094 41.828636169433594
C 51.92050552368164 53.36322021484375 40.16490936279297
C 53.242061614990234 52.77064514160156 40.384117126464844
C 54.4940299987793 53.30509948730469 40.548187255859375
H 54.84572982788086 54.329933166503906 40.60505676269531
C 55.4255256652832 52.164466857910156 40.67884826660156
H 56.49604415893555 52.31645202636719 40.76899719238281
C 54.74833297729492 51.04217529296875 40.400474548339844
N 53.45830154418945 51.45196533203125 40.28234100341797
H 52.7410774230957 50.76280212402344 40.10131072998047
C 55.22883224487305 49.643829345703125 40.218902587890625
H 56.25832748413086 49.411590576171875 39.95033264160156
C 54.426815032958984 48.574195861816406 39.81573486328125
C 55.085201263427734 47.37934112548828 39.44090270996094
H 56.1426887512207 47.236907958984375 39.244285583496094
C 54.06061935424805 46.54341125488281 39.1915283203125
H 54.115779876708984 45.58156967163086 38.69248962402344
C 52.839900970458984 47.219215393066406 39.391868591308594
N 53.0486946105957 48.470664978027344 39.793373107910156
C 51.51652145385742 46.72174835205078 39.06809997558594
C 50.60380935668945 47.40338897705078 38.22955322265625
C 49.99222946166992 47.07244873046875 36.985557556152344
H 50.05451583862305 46.070579528808594 36.573726654052734
C 49.40274429321289 48.20112609863281 36.39112091064453
H 48.81889724731445 48.260826110839844 35.47854995727539
C 49.753475189208984 49.352455139160156 37.13914489746094
N 50.45912551879883 48.75959777832031 38.1937255859375
H 50.84065628051758 49.36028289794922 38.91188049316406
C 49.528873443603516 50.65575408935547 36.8761100769043
H 48.98862075805664 50.89209747314453 35.9605827331543
C 50.0039176940918 51.77278137207031 37.67366409301758
C 49.89578628540039 53.16578674316406 37.28109359741211
H 49.48758316040039 53.33082580566406 36.28944778442383
C 50.605228424072266 53.89875793457031 38.138214111328125
H 50.85368728637695 54.954925537109375 38.134925842285156
C 51.039310455322266 52.98377990722656 39.119873046875
N 50.69062423706055 51.73646545410156 38.83027648925781
C 50.370479583740234 42.964576721191406 40.9212646484375
C 49.493709564208984 43.65232849121094 40.077293395996094
H 48.52949142456055 43.21642303466797 39.82862091064453
C 49.84811019897461 44.894065856933594 39.46148681640625
H 49.12637710571289 45.360111236572266 38.79554748535156
C 51.04354476928711 45.582942962646484 39.81615447998047
C 51.522335052490234 43.659141540527344 41.22820281982422
H 52.259952545166016 43.21324920654297 41.890525817871094
C 51.867191314697266 44.89630889892578 40.70561218261719
H 52.888980865478516 45.185081481933594 40.93828582763672
N 50.09846115112305 41.74898147583008 41.555946350097656
H 50.35378646850586 41.6722526550293 42.529090881347656
C 49.56132125854492 40.67123794555664 40.93498229980469
O 49.31367874145508 40.7715950012207 39.71711730957031
C 49.29030990600586 39.44471740722656 41.75304412841797
C 49.13913345336914 39.53089904785156 43.13768005371094
H 49.344303131103516 40.47145462036133 43.642494201660156
C 48.66141128540039 38.4752197265625 43.89258575439453
C 48.38471603393555 37.31448745727539 43.17041015625
H 48.231021881103516 36.39278793334961 43.72576141357422
C 48.54629135131836 37.21804428100586 41.76183319091797
H 48.2486457824707 36.33144760131836 41.20783233642578
C 48.87643051147461 38.32132339477539 41.069549560546875
H 48.96293258666992 38.3087043762207 39.98606872558594
C 48.41781997680664 38.642791748046875 45.34771728515625
H 48.62290573120117 39.67363739013672 45.632713317871094
C 47.88413619995117 37.77915954589844 46.243499755859375
H 47.67337417602539 36.79081344604492 45.83769989013672
C 47.46574020385742 37.9788818359375 47.616363525390625
C 46.776615142822266 36.70216369628906 48.159912109375
H 46.7573127746582 35.85874938964844 47.466552734375
H 45.78512954711914 36.891624450683594 48.57648468017578
H 47.30532455444336 36.29817581176758 49.02577209472656
C 47.86174392700195 39.00484848022461 48.350425720214844
H 48.41152572631836 39.8095817565918 47.86457061767578
C 47.594539642333984 39.19109344482422 49.76507568359375
H 47.00320053100586 38.4117431640625 50.24346160888672
C 48.14487838745117 40.211830139160156 50.47895812988281
H 48.87893295288086 40.794883728027344 49.92475891113281
C 48.061580657958984 40.54151916503906 51.89911651611328
C 47.52092361450195 39.4140625 52.823890686035156
H 48.033267974853516 39.55727767944336 53.77754211425781
H 46.44217300415039 39.42828369140625 52.99291229248047
H 47.8486213684082 38.46125030517578 52.402915954589844
C 48.386165618896484 41.768898010253906 52.43975830078125
H 48.6596794128418 42.5263671875 51.70671081542969
C 48.230533599853516 42.15693283081055 53.809547424316406
H 47.90169143676758 41.47524642944336 54.59254455566406
C 48.654293060302734 43.35694885253906 54.25630187988281
H 49.0869026184082 44.07331466674805 53.55946350097656
C 48.5088996887207 43.770633697509766 55.6671142578125
H 48.57603073120117 43.03658676147461 56.468727111816406
C 48.241878509521484 45.06724548339844 56.095184326171875
C 48.03525924682617 46.1361083984375 55.149566650390625
H 47.48942184448242 45.671878814697266 54.32554626464844
H 47.439029693603516 46.869590759277344 55.69635009765625
H 49.00226974487305 46.55751037597656 54.86711120605469
C 48.09548568725586 45.510292053222656 57.40277862548828
H 48.4476432800293 46.52595520019531 57.57695770263672
C 47.66389083862305 44.909637451171875 58.43254852294922
H 47.19926834106445 43.93962097167969 58.26190185546875
C 47.63917922973633 45.533077239990234 59.769691467285156
H 47.785343170166016 46.61210632324219 59.785552978515625
C 47.34257125854492 44.96870422363281 60.958534240722656
C 47.08645248413086 43.54127502441406 60.994415283203125
H 47.637874603271484 43.011566162109375 61.77403259277344
H 46.0164680480957 43.338497161865234 61.07483673095703
H 47.33316421508789 42.991111755371094 60.083961486816406
C 47.19624710083008 45.64463806152344 62.254478454589844
H 46.86039352416992 44.94479751586914 63.01824951171875
C 47.43070602416992 46.92261505126953 62.54045104980469
H 47.85305404663086 47.4674072265625 61.69739532470703
C 47.23017501831055 47.62530517578125 63.774620056152344
C 46.1385383605957 47.39702606201172 64.57147979736328
C 44.9321174621582 46.441612243652344 64.22700500488281
H 44.09550094604492 46.96592712402344 64.69351196289062
H 44.697574615478516 46.206504821777344 63.18672180175781
H 44.98836898803711 45.46478271484375 64.71188354492188
C 46.01127243041992 48.15431213378906 65.818603515625
H 46.42403030395508 47.52118682861328 66.6067886352539
H 44.97201919555664 48.290184020996094 66.12512969970703
C 46.778934478759766 49.47180938720703 65.96036529541016
H 46.630062103271484 49.935516357421875 66.93775177001953
H 46.35977554321289 50.19933319091797 65.26216888427734
C 48.22690963745117 49.20319366455078 65.65642547607422
H 48.913822174072266 50.04966735839844 65.720458984375
H 48.540767669677734 48.43199157714844 66.36296844482422
C 48.353145599365234 48.608253479003906 64.21087646484375
C 48.50065994262695 49.79261016845703 63.290733337402344
H 47.66376876831055 50.49176788330078 63.23358917236328
H 49.40781784057617 50.36071014404297 63.50707244873047
H 48.65376663208008 49.503196716308594 62.24897766113281
C 49.72072219848633 47.888267517089844 64.11792755126953
H 49.62252426147461 47.15721130371094 64.92314147949219
H 49.88100814819336 47.334014892578125 63.1907958984375
H 50.520748138427734 48.609649658203125 64.29690551757812
