207
Triad, Carotenoid-Porphyrin-C60
C 34.97113800048828 53.53028869628906 45.65536117553711
C 40.333343505859375 50.06353759765625 45.20798873901367
C 40.02479553222656 52.15498352050781 45.93173599243164
C 38.37355041503906 53.56623077392578 46.73552322387695
C 39.11045837402344 48.02522277832031 44.89797592163086
C 39.91283416748047 49.08964538574219 44.38160705566406
C 39.28157043457031 49.01103210449219 47.03371810913086
C 38.932334899902344 51.61168670654297 48.01253890991211
C 34.62584686279297 52.14543151855469 47.380699157714844
C 38.785499572753906 47.96726608276367 46.27803421020508
C 35.95533752441406 53.87190246582031 46.55579376220703
C 35.72630310058594 47.98735809326172 43.76707458496094
C 38.12812805175781 47.737266540527344 43.937442779541016
C 33.931053161621094 49.37812042236328 44.537723541259766
C 34.17741394042969 49.799591064453125 46.93988037109375
C 33.61345672607422 50.119842529296875 45.697410583496094
C 36.521644592285156 47.36162567138672 45.78300857543945
C 38.342979431152344 49.259910583496094 48.045509338378906
C 38.17481994628906 50.59087371826172 48.55715560913086
C 35.69776916503906 50.28728485107422 48.4642333984375
C 38.186744689941406 52.87165069580078 42.180965423583984
C 38.25360107421875 51.351646423339844 42.003963470458984
C 39.110382080078125 52.97837829589844 43.3916015625
C 39.82403564453125 51.758949279785156 43.61381530761719
C 33.95899200439453 51.57453155517578 43.94926834106445
C 37.156822204589844 50.51648712158203 41.88578414916992
C 37.25262451171875 54.14228820800781 46.124549865722656
C 35.89723205566406 48.83153533935547 42.71205139160156
C 38.34236145019531 48.62109375 42.818946838378906
C 34.10377502441406 50.231964111328125 43.51514434814453
C 38.82666015625 53.667236328125 44.54940414428711
C 35.239402770996094 47.9276008605957 45.924808502197266
C 34.935325622558594 48.673583984375 47.05173873901367
C 36.856849670410156 51.11231994628906 48.75969696044922
C 37.194793701171875 48.46098327636719 47.79307174682617
C 36.79563903808594 53.375579833984375 42.476173400878906
C 35.68396759033203 52.31170654296875 42.42934799194336
C 36.510231018066406 53.98301696777344 43.82106018066406
C 34.779052734375 52.56909942626953 43.42304611206055
C 34.675209045410156 50.798072814941406 47.72526931762695
C 39.32586669921875 50.79838562011719 42.73808670043945
C 37.5068359375 54.16295623779297 44.71976089477539
C 35.26605224609375 53.53526306152344 44.28485870361328
C 39.29766845703125 53.28810119628906 45.78910827636719
C 33.62310791015625 51.513389587402344 45.28688049316406
C 35.88157653808594 51.00391387939453 42.08341598510742
C 37.16315460205078 49.143898010253906 42.26359558105469
C 40.37480163574219 51.390106201171875 44.82075500488281
C 39.410682678222656 49.45672607421875 43.08966827392578
C 35.88529968261719 48.95271301269531 48.048912048339844
C 35.120765686035156 50.01075744628906 42.64299392700195
C 34.14228057861328 52.517364501953125 46.145565032958984
C 40.08360290527344 50.03849792480469 46.55810546875
C 39.811004638671875 51.30828094482422 47.00613784790039
C 38.18479919433594 52.719024658203125 47.85600662231445
C 35.73340606689453 52.994911193847656 47.6331901550293
C 36.79875183105469 47.44440841674805 44.393558502197266
C 34.73187255859375 48.251007080078125 44.67961120605469
C 36.84574890136719 52.446929931640625 48.3209228515625
C 37.517974853515625 47.65102767944336 46.71210479736328
C 38.67742919921875 53.754737854003906 41.07692337036133
N 37.82440185546875 54.48298645019531 40.58360290527344
C 36.50386047363281 54.367820739746094 41.26031494140625
H 35.68952941894531 54.002593994140625 40.62934494018555
H 36.314903259277344 55.32342529296875 41.75606155395508
C 42.433868408203125 53.005393981933594 39.00502395629883
C 42.208953857421875 54.21648406982422 39.73926544189453
H 43.02924346923828 54.9176025390625 39.87007522583008
C 40.987396240234375 54.42584991455078 40.41904830932617
H 40.77630615234375 55.328163146972656 40.987239837646484
C 39.966773986816406 53.49066925048828 40.353492736816406
C 41.369606018066406 52.12639617919922 38.85573196411133
H 41.5107421875 51.13716125488281 38.427886962890625
C 40.15558624267578 52.33451843261719 39.55622100830078
H 39.39268493652344 51.56494140625 39.47074508666992
C 43.898033142089844 52.61564636230469 38.60010528564453
C 45.01148223876953 53.39961242675781 39.0431022644043
C 45.30426788330078 54.729827880859375 39.13838195800781
H 44.67155456542969 55.53736877441406 38.78512954711914
C 46.49193572998047 54.93335723876953 39.88447189331055
H 46.929344177246094 55.84654998779297 40.274314880371094
C 46.98457336425781 53.712547302246094 40.11445617675781
N 46.14990234375 52.801971435546875 39.48479080200195
H 46.2076416015625 51.802215576171875 39.62364196777344
C 48.085853576660156 53.26249694824219 40.89645004272461
H 48.686973571777344 54.08123016357422 41.28919219970703
C 48.474517822265625 51.970123291015625 41.313167572021484
C 49.637184143066406 51.700157165527344 42.10124206542969
H 50.32524871826172 52.437904357910156 42.50064468383789
C 49.63165283203125 50.37532043457031 42.24452209472656
H 50.475189208984375 49.767906188964844 42.55550765991211
C 48.38391876220703 49.806724548339844 41.665435791015625
N 47.73419952392578 50.831626892089844 41.075618743896484
C 48.020538330078125 48.447975158691406 41.45024108886719
C 47.54815673828125 47.933902740478516 40.288482666015625
C 47.9852294921875 46.823822021484375 39.560386657714844
H 48.937416076660156 46.33032989501953 39.72479248046875
C 47.15220642089844 46.785911560058594 38.397037506103516
H 47.262969970703125 46.21270751953125 37.48249053955078
C 46.20122528076172 47.85695266723633 38.432804107666016
N 46.46576690673828 48.36980438232422 39.654239654541016
H 45.905601501464844 49.12257385253906 40.030635833740234
C 45.407386779785156 48.247344970703125 37.42115783691406
H 45.31928253173828 47.56941223144531 36.5734748840332
C 44.58808135986328 49.401702880859375 37.42758560180664
C 43.87409210205078 49.94623565673828 36.36441421508789
H 43.631690979003906 49.48960876464844 35.410499572753906
C 43.46916198730469 51.197288513183594 36.7166633605957
H 42.959442138671875 51.96427917480469 36.1429557800293
C 44.024200439453125 51.398712158203125 37.947914123535156
N 44.66468811035156 50.347190856933594 38.31969451904297
C 48.43675994873047 45.81705856323242 44.833377838134766
C 47.820228576660156 45.389122009277344 43.724853515625
H 47.547828674316406 44.34773254394531 43.57359313964844
C 47.72697448730469 46.22454071044922 42.60306930541992
H 47.23114776611328 45.82161331176758 41.723655700683594
C 48.05531311035156 47.584510803222656 42.69036865234375
C 48.82977294921875 47.09054946899414 44.98604965209961
H 49.30476379394531 47.41646957397461 45.90785217285156
C 48.65538024902344 48.022560119628906 43.918514251708984
H 48.88343811035156 49.08186340332031 44.004783630371094
N 48.727256774902344 44.89103317260742 45.84988784790039
H 49.68476104736328 44.5820198059082 45.9259147644043
C 47.85234832763672 44.27098083496094 46.640708923339844
O 46.673912048339844 44.30768585205078 46.6338996887207
C 48.55298614501953 43.36932373046875 47.648311614990234
C 49.840599060058594 43.732425689697266 48.219566345214844
H 50.30274963378906 44.65815353393555 47.88636779785156
C 50.28007507324219 42.96108627319336 49.273502349853516
C 49.594017028808594 41.74329376220703 49.61233901977539
H 49.88609313964844 41.15243148803711 50.476722717285156
C 48.43125915527344 41.3634033203125 48.974609375
H 47.85968017578125 40.487735748291016 49.27139663696289
C 47.928192138671875 42.2017936706543 48.03804016113281
H 46.93829345703125 41.91664123535156 47.691104888916016
C 51.48101043701172 43.424861907958984 50.014808654785156
H 51.84893798828125 44.371063232421875 49.62078857421875
C 52.1741943359375 42.83634567260742 51.02779006958008
H 51.897300720214844 41.837196350097656 51.36089324951172
C 53.35400390625 43.459014892578125 51.69900894165039
C 53.97218322753906 44.65239334106445 51.01123809814453
H 54.927490234375 44.857666015625 51.4987907409668
H 53.408775329589844 45.585845947265625 51.07205581665039
H 54.13574981689453 44.51667022705078 49.94012451171875
C 53.78192901611328 42.8996696472168 52.8553352355957
H 53.18791198730469 42.05699157714844 53.20599365234375
C 54.851646423339844 43.27161407470703 53.829734802246094
H 55.29822540283203 44.247379302978516 53.64435958862305
C 55.23280334472656 42.5390510559082 54.860477447509766
H 54.818267822265625 41.5893440246582 55.195350646972656
C 56.31352233886719 42.935909271240234 55.756317138671875
C 56.579132080078125 42.00154113769531 56.85231399536133
H 57.54570007324219 42.14924621582031 57.3385009765625
H 55.747825622558594 42.14373779296875 57.545982360839844
H 56.47059631347656 40.95046615600586 56.57677459716797
C 57.01935577392578 44.069976806640625 55.596614837646484
H 56.97496795654297 44.642112731933594 54.67108154296875
C 58.022850036621094 44.506656646728516 56.500919342041016
H 58.114349365234375 44.12629318237305 57.5172233581543
C 58.85992431640625 45.48369216918945 56.28011703491211
H 58.774620056152344 46.02925109863281 55.34149169921875
C 59.94507598876953 45.81401443481445 57.21052932739258
H 59.68792724609375 45.459556579589844 58.20760726928711
C 61.05439758300781 46.450103759765625 56.934940338134766
C 61.390625 46.891998291015625 55.555423736572266
H 62.445350646972656 46.6681022644043 55.382545471191406
H 60.90435791015625 46.209922790527344 54.854862213134766
H 61.13551330566406 47.92384338378906 55.30507278442383
C 62.09569549560547 46.71284484863281 57.931697845458984
H 63.05329895019531 47.007930755615234 57.50526809692383
C 62.06831359863281 46.54770278930664 59.27886962890625
H 61.22358703613281 46.02100372314453 59.72039031982422
C 63.19641876220703 46.90165710449219 60.15055465698242
H 63.997703552246094 47.42518997192383 59.631160736083984
C 63.255409240722656 46.69740676879883 61.4398078918457
C 62.22443389892578 45.92442321777344 62.23263931274414
H 62.20135498046875 44.90834426879883 61.833251953125
H 62.40386962890625 46.01601028442383 63.30589294433594
H 61.261444091796875 46.420806884765625 62.09581756591797
C 64.35428619384766 47.00334548950195 62.29740905761719
H 64.37276458740234 46.4585075378418 63.240135192871094
C 65.2602767944336 47.948184967041016 62.09235763549805
H 65.148681640625 48.65423583984375 61.27079772949219
C 66.39307403564453 48.29180145263672 62.90964126586914
C 67.24188995361328 47.36702346801758 63.346771240234375
C 67.22431182861328 45.94403839111328 63.0551872253418
H 66.99557495117188 45.397804260253906 63.9726676940918
H 66.52616119384766 45.88978576660156 62.21726989746094
H 68.16275024414062 45.557437896728516 62.65228271484375
C 68.44475555419922 47.678916931152344 64.14222717285156
H 69.32689666748047 47.63185501098633 63.50028610229492
H 68.51021575927734 46.91065979003906 64.9155044555664
C 68.39878845214844 49.002777099609375 64.85311889648438
H 69.3177490234375 49.32246398925781 65.348876953125
H 67.7510757446289 48.841064453125 65.71727752685547
C 67.97029113769531 50.11022186279297 63.82063293457031
H 68.01409912109375 51.124542236328125 64.2227554321289
H 68.6357192993164 50.100677490234375 62.95484924316406
C 66.64371490478516 49.74092102050781 63.244834899902344
C 65.57466125488281 50.31989288330078 64.23463439941406
H 65.6577377319336 49.51918029785156 64.97248840332031
H 65.87545776367188 51.33036804199219 64.51911163330078
H 64.6249771118164 50.42803955078125 63.706546783447266
C 66.38109588623047 50.70829772949219 62.154335021972656
H 66.47575378417969 51.7574462890625 62.442047119140625
H 67.0268325805664 50.6004638671875 61.28034591674805
H 65.36624145507812 50.569091796875 61.77598190307617
