207
Triad, Carotenoid-Porphyrin-C60
C 45.03704833984375 33.53599166870117 39.207889556884766
C 48.80572509765625 37.69978713989258 36.30315399169922
C 49.328468322753906 36.49203109741211 38.102752685546875
C 48.55567932128906 34.44644546508789 39.17130661010742
C 47.321632385253906 37.809383392333984 34.44929885864258
C 47.827247619628906 38.36788558959961 35.568912506103516
C 48.73505401611328 35.93381118774414 34.6409912109375
C 49.289955139160156 34.3897819519043 36.82721710205078
C 45.56802749633789 32.307430267333984 37.443504333496094
C 47.78679275512695 36.5793571472168 33.93138885498047
C 46.411434173583984 33.29865646362305 39.29207229614258
C 43.84159851074219 36.8995475769043 34.54182052612305
C 45.97900390625 38.10210037231445 34.43449783325195
C 43.01397705078125 34.85649490356445 35.652099609375
C 44.55671310424805 33.03205490112305 35.36414337158203
C 43.52220916748047 33.66134262084961 36.069766998291016
C 45.55376434326172 35.85935592651367 33.451904296875
C 48.57632827758789 34.59760665893555 34.5295295715332
C 48.8795280456543 33.817447662353516 35.659786224365234
C 46.762054443359375 32.657047271728516 35.29420471191406
C 45.875274658203125 38.177433013916016 39.75552749633789
C 45.51781463623047 38.809940338134766 38.32820129394531
C 47.272647857666016 37.6940803527832 39.49994659423828
C 47.82731246948242 38.37385940551758 38.405181884765625
C 43.04499435424805 34.86549758911133 37.909034729003906
C 44.33654022216797 38.56315231323242 37.596187591552734
C 47.300743103027344 34.24759292602539 39.776554107666016
C 43.51125717163086 37.6312370300293 35.67307662963867
C 45.629398345947266 38.78303146362305 35.58634948730469
C 42.72743225097656 35.63962936401367 36.76668167114258
C 47.6707878112793 36.43425369262695 39.860477447509766
C 44.62715530395508 34.9134635925293 33.86112594604492
C 45.101524353027344 33.68681716918945 34.24004364013672
C 47.91879653930664 32.8896369934082 36.03420639038086
C 47.44715118408203 34.38033676147461 33.79981994628906
C 44.81998062133789 37.1461296081543 40.11962890625
C 43.695430755615234 36.825016021728516 39.060726165771484
C 45.36290740966797 35.759708404541016 40.34491729736328
C 43.56630325317383 35.430477142333984 39.04938888549805
C 45.59297561645508 32.39986038208008 36.03763198852539
C 46.79594039916992 38.9834098815918 37.69075393676758
C 46.757572174072266 35.45136642456055 40.21971130371094
C 44.5388069152832 34.739620208740234 39.72028732299805
C 48.79908752441406 35.8274040222168 39.164215087890625
C 43.47785949707031 33.61203384399414 37.42792892456055
C 43.43454360961914 37.54342269897461 37.9203987121582
C 44.392066955566406 38.55013656616211 36.17535400390625
C 48.85034942626953 37.74702835083008 37.711143493652344
C 46.78476333618164 38.97274398803711 36.278106689453125
C 46.47397232055664 33.418514251708984 34.19050216674805
C 42.93763732910156 37.02810287475586 36.768611907958984
C 44.51393127441406 32.909427642822266 38.13650131225586
C 49.28321075439453 36.5391731262207 35.83247756958008
C 49.64778518676758 35.76133346557617 36.941162109375
C 48.76765060424805 33.74294662475586 37.9315185546875
C 46.714576721191406 32.506656646728516 38.15259552001953
C 45.10297393798828 37.08945083618164 33.9508171081543
C 43.55016326904297 35.525508880615234 34.528018951416016
C 47.93086242675781 32.75937271118164 37.448219299316406
C 46.90524673461914 35.62849807739258 33.442771911621094
C 45.882938385009766 39.10770034790039 40.926605224609375
N 45.074974060058594 38.78609085083008 41.851837158203125
C 44.11515808105469 37.7675666809082 41.388275146484375
H 43.16593551635742 38.1959114074707 41.05638885498047
H 43.77517318725586 37.17281723022461 42.23994064331055
C 48.467864990234375 42.523311614990234 41.40852355957031
C 47.42656326293945 42.50667953491211 40.500244140625
H 47.213157653808594 43.41521072387695 39.942935943603516
C 46.66123962402344 41.37473678588867 40.27249526977539
H 45.89508819580078 41.41987991333008 39.50271987915039
C 46.86219024658203 40.218746185302734 41.04579544067383
C 48.7078857421875 41.30986404418945 42.109169006347656
H 49.5838623046875 41.20248031616211 42.74375534057617
C 47.938236236572266 40.214237213134766 41.87094497680664
H 48.14399337768555 39.31148910522461 42.44040298461914
C 49.28426742553711 43.72092056274414 41.74414825439453
C 48.746944427490234 44.96700668334961 41.230838775634766
C 48.71250534057617 45.515071868896484 39.947486877441406
H 49.057220458984375 45.055973052978516 39.02682113647461
C 47.838233947753906 46.67097854614258 39.98297119140625
H 47.427120208740234 47.182315826416016 39.118831634521484
C 47.498470306396484 46.852535247802734 41.30711364746094
N 48.088478088378906 45.826725006103516 42.05573654174805
H 47.972633361816406 45.7846565246582 43.05919647216797
C 46.61166763305664 47.83061599731445 41.97178268432617
H 45.81290817260742 48.23294448852539 41.350460052490234
C 46.91715621948242 48.42658615112305 43.1843147277832
C 46.03603744506836 49.32920455932617 43.909324645996094
H 45.119808197021484 49.73759078979492 43.49583435058594
C 46.80950927734375 49.74277114868164 44.93885040283203
H 46.51686096191406 50.45017623901367 45.70771789550781
C 48.143985748291016 49.16630172729492 44.75431823730469
N 48.11456298828125 48.31190872192383 43.739803314208984
C 49.340023040771484 49.31328201293945 45.592567443847656
C 49.97000503540039 48.16781234741211 46.10676574707031
C 50.61830520629883 48.13344955444336 47.3927116394043
H 50.54905319213867 48.951168060302734 48.10247802734375
C 51.35051727294922 46.95292282104492 47.386634826660156
H 51.92799377441406 46.62759017944336 48.24565124511719
C 51.151123046875 46.1743049621582 46.162841796875
N 50.16895294189453 46.90622329711914 45.605751037597656
H 49.656925201416016 46.547794342041016 44.811092376708984
C 51.76337432861328 45.0526008605957 45.74556350708008
H 52.63041305541992 44.74325942993164 46.32735061645508
C 51.50031661987305 44.307987213134766 44.508697509765625
C 52.06938552856445 43.15520095825195 43.85955810546875
H 52.952392578125 42.623958587646484 44.19913864135742
C 51.35070037841797 42.90353012084961 42.76723098754883
H 51.597225189208984 42.119693756103516 42.05868148803711
C 50.249237060546875 43.73507308959961 42.76030349731445
N 50.397640228271484 44.5869026184082 43.74753952026367
C 50.965492248535156 53.361392974853516 45.86138153076172
C 51.653404235839844 52.32241439819336 46.42184829711914
H 52.67147445678711 52.51425552368164 46.750938415527344
C 51.12845993041992 51.0203971862793 46.28810501098633
H 51.77521896362305 50.18583297729492 46.54652404785156
C 49.85900115966797 50.758113861083984 45.71240234375
C 49.71683120727539 53.14235305786133 45.2952766418457
H 49.17715835571289 54.03219985961914 44.98143005371094
C 49.20166015625 51.89641189575195 45.219268798828125
H 48.24571228027344 51.78378677368164 44.71424865722656
N 51.45622634887695 54.612979888916016 46.22412872314453
H 51.782630920410156 54.67609786987305 47.176788330078125
C 51.400840759277344 55.7663688659668 45.51874923706055
O 51.10064697265625 55.70449447631836 44.34347915649414
C 51.79624938964844 56.99911880493164 46.25321578979492
C 51.47673034667969 57.094173431396484 47.62325668334961
H 51.01023483276367 56.286075592041016 48.180870056152344
C 51.723384857177734 58.1959114074707 48.369659423828125
C 52.4727783203125 59.23923873901367 47.82832336425781
H 52.75313949584961 60.104679107666016 48.42329406738281
C 52.71488571166992 59.28065872192383 46.46968460083008
H 53.28567123413086 60.07981491088867 46.00372314453125
C 52.35245132446289 58.1390266418457 45.67501449584961
H 52.616878509521484 58.100154876708984 44.62138366699219
C 51.21171569824219 58.339656829833984 49.738861083984375
H 50.59013748168945 57.52214431762695 50.10112762451172
C 51.5177001953125 59.29697036743164 50.6464729309082
H 52.17812728881836 60.0986213684082 50.319183349609375
C 51.17536926269531 59.358341217041016 52.05156326293945
C 49.91358184814453 58.62104415893555 52.467403411865234
H 49.2157096862793 58.5075798034668 51.63520050048828
H 49.31431579589844 59.16328811645508 53.201786041259766
H 50.13334655761719 57.63375473022461 52.87902069091797
C 51.92898941040039 59.97994613647461 52.94248962402344
H 52.833892822265625 60.46335220336914 52.577247619628906
C 51.704708099365234 60.04169845581055 54.38349151611328
H 50.81268310546875 59.5175895690918 54.723392486572266
C 52.638309478759766 60.54231643676758 55.219146728515625
H 53.48554992675781 61.04536819458008 54.75541687011719
C 52.553035736083984 60.68716049194336 56.657676696777344
C 53.80891036987305 61.1750373840332 57.22172164916992
H 54.45372009277344 60.37191390991211 57.58460235595703
H 54.38039016723633 61.781490325927734 56.515960693359375
H 53.6315803527832 61.81254959106445 58.090396881103516
C 51.49547576904297 60.30399703979492 57.388427734375
H 50.58636474609375 60.03908920288086 56.85059356689453
C 51.43898391723633 60.40755081176758 58.86709976196289
H 52.30880355834961 60.76925277709961 59.41345977783203
C 50.50830078125 59.86391830444336 59.64875030517578
H 49.70915985107422 59.28644943237305 59.18634033203125
C 50.60422134399414 59.72078323364258 61.09518814086914
H 51.3331413269043 60.3134880065918 61.64591598510742
C 50.00369644165039 58.84370803833008 61.93752670288086
C 48.925514221191406 57.93523025512695 61.49287796020508
H 48.56232833862305 57.22324752807617 62.23694610595703
H 48.14548873901367 58.668582916259766 61.27790832519531
H 49.261741638183594 57.33541488647461 60.64456558227539
C 50.19851303100586 58.88852310180664 63.38214111328125
H 50.466861724853516 57.954402923583984 63.8734130859375
C 49.810218811035156 59.87350845336914 64.14590454101562
H 49.42118453979492 60.704158782958984 63.558895111083984
C 49.918251037597656 59.87324905395508 65.62102508544922
H 50.306312561035156 58.91281509399414 65.95702362060547
C 49.588157653808594 60.792232513427734 66.49732208251953
C 48.994144439697266 62.092350006103516 66.05252838134766
H 49.10646057128906 62.9452018737793 66.72521209716797
H 49.466453552246094 62.3654670715332 65.10659790039062
H 47.915435791015625 61.93976974487305 65.9779052734375
C 49.743595123291016 60.550716400146484 67.9240951538086
H 50.5474967956543 59.89851760864258 68.26219177246094
C 48.98955154418945 61.110652923583984 68.87705993652344
H 48.110321044921875 61.67631912231445 68.572265625
C 49.12885665893555 61.02192306518555 70.36540222167969
C 50.25997543334961 60.95454788208008 71.03952026367188
C 51.68360137939453 60.87858200073242 70.37738800048828
H 51.64161682128906 61.52598190307617 69.4990005493164
H 52.57611846923828 61.00796890258789 70.99313354492188
H 51.790184020996094 59.85249710083008 70.0192642211914
C 50.39897537231445 60.665523529052734 72.4465560913086
H 50.55305862426758 61.58546829223633 73.0143814086914
H 51.223182678222656 59.990962982177734 72.68762969970703
C 49.10506057739258 59.98001480102539 72.99181365966797
H 49.26302719116211 59.96488571166992 74.07222747802734
H 48.815513610839844 58.97218704223633 72.68700408935547
C 47.96696472167969 61.0179328918457 72.64562225341797
H 47.02570724487305 60.86384201049805 73.17737579345703
H 48.353092193603516 61.95846176147461 73.0440902709961
C 47.768917083740234 60.99666213989258 71.15020751953125
C 46.938751220703125 59.75580978393555 70.7737045288086
H 46.506813049316406 59.73318862915039 69.7710189819336
H 47.59229278564453 58.8826789855957 70.71920013427734
H 46.23348617553711 59.42361831665039 71.53836822509766
C 46.81092834472656 62.06069564819336 70.88020324707031
H 47.24493408203125 62.99234390258789 71.24916076660156
H 46.53737258911133 62.1151008605957 69.82442474365234
H 45.8814582824707 61.899349212646484 71.43021392822266
