207
Triad, Carotenoid-Porphyrin-C60
C 44.54385757446289 60.00443649291992 44.210262298583984
C 46.80154800415039 56.25224685668945 48.90979766845703
C 45.592010498046875 58.16054916381836 49.086124420166016
C 44.088619232177734 59.53538131713867 47.78733444213867
C 47.21153259277344 54.512088775634766 47.32854080200195
C 47.70549774169922 55.56526565551758 48.09679412841797
C 44.94769287109375 54.89017105102539 48.12708282470703
C 43.445030212402344 57.210811614990234 48.299171447753906
C 43.07293701171875 58.30831527709961 44.071712493896484
C 45.87879943847656 54.183040618896484 47.32710647583008
C 43.76409912109375 59.99834060668945 45.36491394042969
C 47.569705963134766 54.997745513916016 43.81076431274414
C 47.94895553588867 54.5446891784668 46.129051208496094
C 46.126033782958984 56.37331008911133 42.47970199584961
C 43.898834228515625 56.23173141479492 43.19393539428711
C 44.8725471496582 56.92192459106445 42.51644515991211
C 45.924835205078125 53.954524993896484 44.950103759765625
C 43.76179885864258 55.01284408569336 47.420284271240234
C 42.98070526123047 56.19389724731445 47.45265197753906
C 42.646976470947266 56.16608810424805 45.074745178222656
C 48.63694381713867 59.886470794677734 46.57200241088867
C 49.0977897644043 58.420719146728516 46.41484832763672
C 47.6590576171875 59.64517593383789 47.760257720947266
C 47.8837890625 58.380435943603516 48.31046676635742
C 46.299686431884766 58.55546951293945 42.626895904541016
C 49.161216735839844 57.80270767211914 45.19954299926758
C 44.41557693481445 60.23408126831055 46.59404754638672
C 48.45365524291992 56.03054428100586 43.885921478271484
C 48.7780647277832 55.63840103149414 46.15752410888672
C 47.03214645385742 57.362979888916016 42.46322250366211
C 46.28602981567383 60.052669525146484 47.75826644897461
C 45.365447998046875 54.4478645324707 43.79982376098633
C 44.0848503112793 54.986759185791016 43.849422454833984
C 42.39543914794922 56.74496078491211 46.33468246459961
C 43.87619400024414 54.38466262817383 46.160430908203125
C 48.0042839050293 60.5265998840332 45.297462463378906
C 48.01133346557617 59.589115142822266 44.060054779052734
C 46.447044372558594 60.74824905395508 45.42421340942383
C 46.765541076660156 59.63754653930664 43.41988754272461
C 43.017181396484375 56.925113677978516 43.991554260253906
C 48.7599983215332 57.61776351928711 47.51390075683594
C 45.74305725097656 60.572147369384766 46.60984420776367
C 45.914886474609375 60.29201889038086 44.224327087402344
C 45.293487548828125 59.36196517944336 48.465248107910156
C 44.98627471923828 58.29384994506836 42.600528717041016
C 48.656124114990234 58.35042953491211 44.013214111328125
C 49.02389907836914 56.41847610473633 45.076202392578125
C 46.87843322753906 57.64545822143555 49.003318786621094
C 48.62397003173828 56.228816986083984 47.4249382019043
C 43.30522155761719 54.90433883666992 44.973182678222656
C 48.271053314208984 57.258602142333984 43.169219970703125
C 44.04264450073242 59.0115852355957 43.367183685302734
C 45.405418395996094 55.93669509887695 48.88129425048828
C 44.69846725463867 57.08597946166992 48.9821891784668
C 43.2750358581543 58.412532806396484 47.69989013671875
C 42.87339401245117 58.95040512084961 45.2955322265625
C 47.32230758666992 54.23308181762695 44.91269302368164
C 46.36134719848633 55.14240646362305 43.12434387207031
C 42.603248596191406 58.11660385131836 46.46631622314453
C 45.200321197509766 53.930301666259766 46.1275749206543
C 49.69266891479492 60.885990142822266 46.92763900756836
N 49.65081024169922 62.00223922729492 46.23080825805664
C 48.72389602661133 61.83854293823242 45.121681213378906
H 49.22057342529297 61.66230392456055 44.16413497924805
H 47.96403121948242 62.62203598022461 45.06337356567383
C 52.291236877441406 60.37912368774414 50.36210250854492
C 50.886722564697266 60.63762283325195 50.46818923950195
H 50.45051956176758 60.647953033447266 51.463775634765625
C 50.1014518737793 60.85251235961914 49.34328842163086
H 49.03153991699219 61.02617263793945 49.42514419555664
C 50.636959075927734 60.678524017333984 48.08356857299805
C 52.79441833496094 60.29098129272461 49.034358978271484
H 53.808685302734375 59.955692291259766 48.83330154418945
C 52.04135513305664 60.5120735168457 47.883365631103516
H 52.347991943359375 60.57571029663086 46.84245681762695
C 53.1842041015625 60.148983001708984 51.53464889526367
C 52.539039611816406 60.21135330200195 52.85084915161133
C 51.90077209472656 61.25593185424805 53.43326950073242
H 51.582008361816406 62.16962814331055 52.94257354736328
C 51.54053497314453 60.8991813659668 54.7812385559082
H 51.05229568481445 61.55741500854492 55.492271423339844
C 52.0749397277832 59.644840240478516 54.95777130126953
N 52.460784912109375 59.18317794799805 53.770545959472656
H 52.7325439453125 58.23739242553711 53.538673400878906
C 52.18593215942383 58.896358489990234 56.19816970825195
H 51.61792755126953 59.4756965637207 56.92457580566406
C 52.801822662353516 57.73690414428711 56.45012664794922
C 52.763912200927734 57.2065544128418 57.77766799926758
H 52.30582809448242 57.60012435913086 58.67905044555664
C 53.4984016418457 56.00535202026367 57.57914733886719
H 53.810142517089844 55.27610397338867 58.319583892822266
C 53.87832260131836 55.872432708740234 56.15170669555664
N 53.39070129394531 56.914127349853516 55.47431945800781
C 54.77519607543945 54.867427825927734 55.56327438354492
C 55.76299285888672 55.210933685302734 54.674800872802734
C 57.15387725830078 54.70683670043945 54.58757019042969
H 57.70656967163086 54.097965240478516 55.29541015625
C 57.78292465209961 55.4177360534668 53.554664611816406
H 58.80790328979492 55.22371292114258 53.25632858276367
C 56.92778778076172 56.38704299926758 52.928470611572266
N 55.80497741699219 56.12344741821289 53.627479553222656
H 54.970218658447266 56.68538284301758 53.529788970947266
C 57.179100036621094 57.33588790893555 52.0013542175293
H 58.197059631347656 57.445621490478516 51.6303596496582
C 56.24315643310547 58.43217849731445 51.5426025390625
C 56.551212310791016 59.56745529174805 50.7742805480957
H 57.5781364440918 59.75263595581055 50.47700119018555
C 55.403263092041016 60.36906814575195 50.60390853881836
H 55.353843688964844 61.28486251831055 50.024169921875
C 54.44046401977539 59.63859176635742 51.32387161254883
N 54.949676513671875 58.59952926635742 51.874046325683594
C 53.121803283691406 50.88093948364258 55.903778076171875
C 54.36856460571289 51.022640228271484 55.268558502197266
H 54.91798782348633 50.15182113647461 54.920166015625
C 54.86836624145508 52.301578521728516 55.11204147338867
H 55.75362777709961 52.44501876831055 54.49778366088867
C 54.27754211425781 53.42977523803711 55.72367477416992
C 52.5306510925293 51.96845626831055 56.513973236083984
H 51.68153381347656 51.728023529052734 57.14861297607422
C 53.064476013183594 53.2166862487793 56.39806365966797
H 52.46941375732422 54.07539749145508 56.698211669921875
N 52.52971649169922 49.58711624145508 56.10941696166992
H 51.9323616027832 49.63118362426758 56.92139434814453
C 52.380088806152344 48.55483627319336 55.23273849487305
O 52.779788970947266 48.6684684753418 54.11433029174805
C 51.59787368774414 47.40250778198242 55.718055725097656
C 51.2922477722168 46.320682525634766 54.85026168823242
H 51.69361114501953 46.35336685180664 53.84060287475586
C 50.477542877197266 45.215030670166016 55.24297332763672
C 49.991737365722656 45.17995834350586 56.545867919921875
H 49.319278717041016 44.37418746948242 56.828914642333984
C 50.4312744140625 46.17573928833008 57.45668029785156
H 50.16832733154297 46.21969985961914 58.51047897338867
C 51.2790641784668 47.21543502807617 57.08506774902344
H 51.50950622558594 48.01607894897461 57.78323745727539
C 50.16866683959961 44.13180160522461 54.170589447021484
H 50.522953033447266 44.30081558227539 53.1547966003418
C 49.47338104248047 43.00899887084961 54.399818420410156
H 49.0499382019043 42.81154251098633 55.38349914550781
C 49.05797576904297 42.08742904663086 53.3209228515625
C 49.594573974609375 42.30666732788086 51.952232360839844
H 49.38408660888672 43.319881439208984 51.60357666015625
H 49.095455169677734 41.76692581176758 51.144752502441406
H 50.62550354003906 41.986568450927734 51.7873420715332
C 48.09202575683594 41.17753982543945 53.48002624511719
H 47.67918014526367 41.025150299072266 54.47614669799805
C 47.63150405883789 40.16897964477539 52.49480438232422
H 48.280216217041016 40.07517623901367 51.625152587890625
C 46.60524368286133 39.28843307495117 52.71966552734375
H 46.022701263427734 39.4054069519043 53.632293701171875
C 46.146507263183594 38.223594665527344 51.859859466552734
C 44.733917236328125 37.80988693237305 52.0609016418457
H 44.320648193359375 38.04612731933594 53.04368591308594
H 44.138084411621094 38.3563346862793 51.326847076416016
H 44.65987014770508 36.74985885620117 51.80927276611328
C 46.984275817871094 37.54005813598633 51.04742431640625
H 48.012699127197266 37.8957405090332 51.089439392089844
C 46.55574417114258 36.498779296875 50.110469818115234
H 45.499027252197266 36.383121490478516 49.8740119934082
C 47.403358459472656 35.735321044921875 49.561466217041016
H 48.462493896484375 35.83689880371094 49.793487548828125
C 47.06938934326172 34.68183898925781 48.53446960449219
H 46.0061149597168 34.615421295166016 48.30872344970703
C 47.94886016845703 34.00891876220703 47.781768798828125
C 49.375221252441406 34.00135040283203 48.16835021972656
H 49.96088790893555 33.296363830566406 47.57467269897461
H 49.70708465576172 35.0379524230957 48.080108642578125
H 49.528358459472656 33.661651611328125 49.19480895996094
C 47.59745407104492 33.239288330078125 46.65987014770508
H 48.274009704589844 32.3995475769043 46.50811004638672
C 46.56284713745117 33.41810989379883 45.820343017578125
H 45.897647857666016 34.25398635864258 46.03186798095703
C 46.417640686035156 32.4327392578125 44.73396301269531
H 47.14055252075195 31.61887550354004 44.764503479003906
C 45.47056198120117 32.577301025390625 43.8239631652832
C 44.43031311035156 33.62363815307617 43.827423095703125
H 43.785606384277344 33.6156120300293 44.70875549316406
H 44.98945236206055 34.55922317504883 43.76029968261719
H 43.74882888793945 33.478858947753906 42.98653793334961
C 45.29978561401367 31.59715461730957 42.7133674621582
H 44.631343841552734 31.93736457824707 41.923831939697266
C 45.75926208496094 30.36625862121582 42.53820037841797
H 46.49570083618164 29.851369857788086 43.153404235839844
C 45.382686614990234 29.501604080200195 41.403099060058594
C 44.19835662841797 28.87061882019043 41.34625244140625
C 43.106136322021484 29.17817497253418 42.36935806274414
H 42.29401779174805 28.45102882385254 42.43396759033203
H 43.66014862060547 29.28937339782715 43.303794860839844
H 42.68600845336914 30.177858352661133 42.24055480957031
C 43.645442962646484 28.05866050720215 40.22381591796875
H 42.882179260253906 28.61411476135254 39.67485427856445
H 43.07073974609375 27.20564079284668 40.59061050415039
C 44.74720764160156 27.645273208618164 39.14442443847656
H 44.25505828857422 27.405912399291992 38.19945526123047
H 45.316043853759766 26.762392044067383 39.44343185424805
C 45.646942138671875 28.85225486755371 38.934661865234375
H 46.44784164428711 28.620370864868164 38.22949981689453
H 45.14393997192383 29.712099075317383 38.4873046875
C 46.38137435913086 29.381540298461914 40.21045684814453
C 47.49751281738281 28.447519302368164 40.56138229370117
H 48.04199981689453 27.9688663482666 39.7447509765625
H 48.25151443481445 28.74367332458496 41.29366683959961
H 47.08456039428711 27.524194717407227 40.97297286987305
C 47.046321868896484 30.6368350982666 39.680965423583984
H 47.57027053833008 31.09088706970215 40.52463150024414
H 47.74224090576172 30.698503494262695 38.841705322265625
H 46.23384094238281 31.34044075012207 39.48789596557617
