207
Triad, Carotenoid-Porphyrin-C60
C 46.032108306884766 67.0771255493164 58.36050796508789
C 41.93392562866211 63.1868896484375 55.21449279785156
C 42.82231903076172 63.00580596923828 57.34908676147461
C 43.81489181518555 64.3974609375 59.03446578979492
C 41.66793441772461 64.84833526611328 53.51875305175781
C 42.266258239746094 63.68146514892578 53.972110748291016
C 40.5073127746582 65.12736511230469 55.66090774536133
C 41.54653549194336 64.86410522460938 58.1954231262207
C 44.184627532958984 68.29554748535156 58.37578201293945
C 40.811683654785156 65.59469604492188 54.37131118774414
C 45.11411666870117 66.39732360839844 59.140525817871094
C 43.96537399291992 67.55738830566406 52.80055236816406
C 42.58585739135742 65.54036712646484 52.7147102355957
C 44.96065902709961 69.00457000732422 54.53032302856445
C 43.41870880126953 69.38304901123047 56.38378143310547
C 44.7448616027832 69.36712646484375 55.878883361816406
C 41.929473876953125 67.57337188720703 53.73659133911133
C 40.417842864990234 66.19520568847656 56.509090423583984
C 40.91579055786133 66.09772491455078 57.80690383911133
C 41.883480072021484 68.28724670410156 57.63538360595703
C 46.58686828613281 63.318031311035156 55.52137756347656
C 45.83395004272461 63.624107360839844 54.20547866821289
C 45.44352340698242 62.88508605957031 56.372188568115234
C 44.339534759521484 62.605743408203125 55.54983139038086
C 46.60838317871094 68.03512573242188 55.77741622924805
C 45.95049285888672 64.82307434082031 53.47829055786133
C 45.0282096862793 65.03572845458984 59.09882354736328
C 45.134315490722656 66.72008514404297 52.807586669921875
C 43.72425079345703 64.74490356445312 52.65855407714844
C 46.14763259887695 68.1961441040039 54.48865509033203
C 45.2170295715332 63.31401824951172 57.70302200317383
C 42.66904067993164 68.61071014404297 54.30387496948242
C 42.378292083740234 69.0908203125 55.58461380004883
C 41.67828369140625 67.09014129638672 58.44160842895508
C 40.73122787475586 67.3014144897461 55.753173828125
C 47.42190933227539 64.45398712158203 56.17026138305664
C 47.3050537109375 65.78548431396484 55.36968231201172
C 46.88795471191406 65.01547241210938 57.49641799926758
C 47.125606536865234 66.85716247558594 56.20698547363281
C 43.15903091430664 68.86725616455078 57.624664306640625
C 44.5318603515625 63.07866668701172 54.25769805908203
C 45.89313507080078 64.30667877197266 58.26240539550781
C 46.93558883666992 66.42314147949219 57.50680160522461
C 43.881778717041016 63.336090087890625 58.19464874267578
C 45.77212905883789 68.7687759399414 56.61532211303711
C 46.70484161376953 65.87028503417969 54.08677673339844
C 44.98244094848633 65.35760498046875 52.6444091796875
C 43.00437927246094 62.70612335205078 56.0283317565918
C 43.520790100097656 63.659812927246094 53.48884582519531
C 41.43125915527344 68.39727783203125 56.360023498535156
C 46.16483688354492 67.06391143798828 53.68478012084961
C 45.50812911987305 68.26248168945312 57.91978073120117
C 41.181880950927734 63.926727294921875 56.053977966308594
C 41.63468933105469 63.766212463378906 57.344905853271484
C 42.58845901489258 65.16814422607422 59.07938003540039
C 43.94065856933594 67.16252899169922 59.15716552734375
C 42.74995803833008 66.89273834228516 52.811668395996094
C 43.90308380126953 68.64545440673828 53.69989013671875
C 42.6942138671875 66.5496826171875 59.09965515136719
C 40.92383575439453 66.9728012084961 54.41342544555664
C 47.543697357177734 62.11865234375 55.36380386352539
N 48.7092170715332 62.420814514160156 55.77367401123047
C 48.91973114013672 63.90364074707031 56.16891098022461
H 49.54433822631836 64.4345703125 55.445980072021484
H 49.44581604003906 63.967864990234375 57.12481689453125
C 46.44578170776367 58.246917724609375 53.878578186035156
C 46.72629165649414 59.28071594238281 52.990814208984375
H 46.6351318359375 59.217201232910156 51.909507751464844
C 47.06454086303711 60.54676055908203 53.47489929199219
H 47.38838577270508 61.186614990234375 52.65802764892578
C 47.10708999633789 60.81512451171875 54.80009078979492
C 46.598915100097656 58.44532012939453 55.21223449707031
H 46.578582763671875 57.552154541015625 55.83143615722656
C 46.99046325683594 59.72406005859375 55.67293930053711
H 47.1961669921875 59.88768005371094 56.727684020996094
C 46.084625244140625 56.91851806640625 53.31195831298828
C 46.093990325927734 56.64302062988281 51.88165283203125
C 45.27328872680664 57.184722900390625 50.89022445678711
H 44.57008361816406 57.992706298828125 51.063106536865234
C 45.5838623046875 56.43010711669922 49.74873733520508
H 45.154205322265625 56.49958801269531 48.754859924316406
C 46.40058517456055 55.42456817626953 50.062625885009766
N 46.77297592163086 55.59320068359375 51.338321685791016
H 47.313323974609375 54.94452667236328 51.89453887939453
C 46.86220932006836 54.41218566894531 49.19844055175781
H 47.122318267822266 54.782562255859375 48.20793914794922
C 47.38043212890625 53.20365905761719 49.55641555786133
C 48.52764129638672 52.796791076660156 48.944217681884766
H 49.06580352783203 53.35296630859375 48.18377685546875
C 49.012210845947266 51.76427459716797 49.69694137573242
H 50.00038528442383 51.32408905029297 49.61341857910156
C 48.00666046142578 51.39208984375 50.659427642822266
N 47.035152435302734 52.317657470703125 50.64604568481445
C 48.01479721069336 50.36529541015625 51.700767517089844
C 47.19257736206055 50.51811981201172 52.810672760009766
C 46.44858932495117 49.508636474609375 53.50375747680664
H 46.46501922607422 48.43836212158203 53.326377868652344
C 45.630802154541016 50.11182403564453 54.42954635620117
H 44.77883529663086 49.64323425292969 54.91100311279297
C 45.80720901489258 51.578468322753906 54.37605285644531
N 46.813838958740234 51.66943359375 53.49088668823242
H 47.210350036621094 52.559608459472656 53.22166061401367
C 45.06829833984375 52.516639709472656 54.99629592895508
H 44.30650329589844 52.24285888671875 55.72473907470703
C 45.25453186035156 53.95722198486328 54.905704498291016
C 44.55093765258789 54.92280578613281 55.69322967529297
H 43.80926513671875 54.74506378173828 56.46495056152344
C 44.85912322998047 56.14960479736328 55.17127227783203
H 44.3455810546875 57.08936309814453 55.34550857543945
C 45.78921890258789 55.94676208496094 54.20711898803711
N 46.03569412231445 54.60070037841797 54.03609848022461
C 49.81019592285156 46.462318420410156 50.8665771484375
C 49.461334228515625 46.885379791259766 52.124881744384766
H 49.734336853027344 46.22095489501953 52.940711975097656
C 48.81960678100586 48.095489501953125 52.457855224609375
H 48.55187225341797 48.30754852294922 53.489803314208984
C 48.65030288696289 49.021488189697266 51.454708099365234
C 49.5396842956543 47.37997817993164 49.83103561401367
H 49.841400146484375 47.142791748046875 48.81404113769531
C 49.063026428222656 48.68060302734375 50.15982437133789
H 48.833797454833984 49.311744689941406 49.30502700805664
N 50.61299514770508 45.35358428955078 50.709129333496094
H 51.47605514526367 45.42086410522461 51.22747039794922
C 50.495521545410156 44.26634216308594 49.85737991333008
O 49.56880187988281 44.20165252685547 49.045982360839844
C 51.426021575927734 43.159358978271484 50.08071517944336
C 51.62495040893555 42.11612319946289 49.098751068115234
H 51.22964859008789 42.32404708862305 48.10775375366211
C 52.52254867553711 41.13451385498047 49.371978759765625
C 53.1317024230957 40.92374038696289 50.5700798034668
H 53.84263229370117 40.128543853759766 50.779388427734375
C 52.80411911010742 41.822139739990234 51.55268096923828
H 53.14596939086914 41.71345520019531 52.57878875732422
C 51.964107513427734 42.920047760009766 51.354183197021484
H 51.7753791809082 43.597373962402344 52.183143615722656
C 52.76875686645508 40.15952682495117 48.25823974609375
H 52.31837844848633 40.44957733154297 47.31010437011719
C 53.589420318603516 39.12870407104492 48.1820068359375
H 54.08134078979492 38.76094055175781 49.08127975463867
C 53.79387283325195 38.292503356933594 47.04734420776367
C 54.93769454956055 37.37200927734375 47.26799011230469
H 55.47426986694336 37.11433410644531 46.352481842041016
H 54.780887603759766 36.56715774536133 47.989166259765625
H 55.74936294555664 37.938201904296875 47.72960662841797
C 52.96272659301758 38.11528396606445 45.98489761352539
H 52.183650970458984 38.85380554199219 45.80175018310547
C 53.11491775512695 37.07292938232422 44.94462585449219
H 53.99052810668945 36.43031311035156 45.023895263671875
C 52.28169631958008 37.074581146240234 43.855438232421875
H 51.62434005737305 37.936126708984375 43.748023986816406
C 52.29532241821289 36.224945068359375 42.685638427734375
C 51.83445358276367 36.734989166259766 41.37665557861328
H 51.183631896972656 37.610572814941406 41.423988342285156
H 52.73367691040039 37.01091003417969 40.821922302246094
H 51.243072509765625 35.92906188964844 40.93708419799805
C 52.6658821105957 34.90632629394531 42.719886779785156
H 53.19173812866211 34.72681427001953 43.656463623046875
C 52.737369537353516 33.949100494384766 41.668174743652344
H 52.85176467895508 34.23948669433594 40.62485885620117
C 52.92226028442383 32.69027328491211 41.885643005371094
H 53.0368766784668 32.279937744140625 42.887847900390625
C 53.092288970947266 31.745338439941406 40.82917022705078
H 53.18623733520508 32.22190475463867 39.8545036315918
C 53.0991096496582 30.46027374267578 40.80891418457031
C 52.80387496948242 29.70595932006836 42.06690979003906
H 52.493953704833984 28.68102264404297 41.8526496887207
H 53.673397064208984 29.598907470703125 42.71878433227539
H 52.005184173583984 30.2608642578125 42.56352615356445
C 53.340328216552734 29.50489044189453 39.67913055419922
H 53.194393157958984 28.440105438232422 39.85478210449219
C 53.69941329956055 29.806373596191406 38.46173095703125
H 53.961727142333984 30.834407806396484 38.216251373291016
C 53.926021575927734 28.734249114990234 37.4648551940918
H 53.27236557006836 27.865299224853516 37.524803161621094
C 54.660762786865234 28.77740478515625 36.35303497314453
C 55.523502349853516 29.942710876464844 35.999366760253906
H 56.090145111083984 29.821517944335938 35.073795318603516
H 54.885684967041016 30.810359954833984 35.81814193725586
H 56.22201156616211 30.227378845214844 36.788997650146484
C 54.61203384399414 27.792190551757812 35.29726791381836
H 55.503543853759766 27.717388153076172 34.67636489868164
C 53.58694076538086 26.978900909423828 34.94855499267578
H 52.6485481262207 27.005367279052734 35.500492095947266
C 53.6751823425293 25.998523712158203 33.87570571899414
C 54.022518157958984 26.251056671142578 32.5422248840332
C 54.38908767700195 27.626075744628906 32.049278259277344
H 54.031864166259766 28.406173706054688 32.72477340698242
H 55.476436614990234 27.711009979248047 31.995277404785156
H 53.98628616333008 27.882511138916016 31.06720542907715
C 54.08693313598633 25.084793090820312 31.54958724975586
H 55.01301956176758 24.54656219482422 31.762008666992188
H 54.1219596862793 25.49301528930664 30.537363052368164
C 52.86674880981445 24.149951934814453 31.74136734008789
H 52.67105484008789 23.461673736572266 30.91647720336914
H 51.92558670043945 24.702686309814453 31.775440216064453
C 53.17927169799805 23.533309936523438 33.120479583740234
H 52.5146369934082 22.695911407470703 33.34295654296875
H 54.17879867553711 23.096546173095703 33.06902313232422
C 53.14847183227539 24.561336517333984 34.273216247558594
C 51.65068435668945 24.576480865478516 34.729331970214844
H 51.462825775146484 25.088951110839844 35.67513656616211
H 50.978389739990234 25.035186767578125 34.00127029418945
H 51.36115646362305 23.560428619384766 35.005531311035156
C 53.97028732299805 23.90582275390625 35.40739822387695
H 53.4185905456543 22.987266540527344 35.61798858642578
H 55.031314849853516 23.840408325195312 35.157562255859375
H 54.01515579223633 24.56094741821289 36.27989959716797
