207
Triad, Carotenoid-Porphyrin-C60
C 51.38434982299805 56.958072662353516 31.93874740600586
C 56.670475006103516 54.450496673583984 34.88569641113281
C 54.76505661010742 53.4523811340332 34.171905517578125
C 52.94509506225586 53.82746505737305 32.726707458496094
C 57.94022750854492 56.41548538208008 34.372291564941406
C 57.16716384887695 55.6646614074707 35.24113464355469
C 57.554988861083984 54.79679489135742 32.62069320678711
C 55.18874740600586 53.605709075927734 31.835914611816406
C 52.84981155395508 56.91142654418945 30.199270248413086
C 58.08443069458008 56.04096603393555 33.04098129272461
C 51.77986526489258 55.65553665161133 31.689125061035156
C 56.43716049194336 59.7104377746582 33.684444427490234
C 57.58662796020508 57.724857330322266 34.667301177978516
C 54.60136032104492 60.050113677978516 32.102596282958984
C 54.667964935302734 58.53730392456055 30.245697021484375
C 53.953487396240234 59.360897064208984 31.06144142150879
C 57.63808059692383 58.33708572387695 32.30598068237305
C 57.05202102661133 55.02651596069336 31.314176559448242
C 55.89766311645508 54.3664665222168 30.960390090942383
C 55.23599624633789 56.3691291809082 29.78846549987793
C 52.73991775512695 56.262699127197266 36.59487533569336
C 54.1086311340332 56.97306442260742 36.632408142089844
C 53.232913970947266 54.91975021362305 36.04191970825195
C 54.62502670288086 54.81216812133789 36.14698028564453
C 52.57059097290039 59.3106803894043 32.859039306640625
C 54.39143753051758 58.254085540771484 36.16460418701172
C 51.89432907104492 54.722476959228516 32.74699401855469
C 55.559322357177734 59.6291389465332 34.7421989440918
C 56.725040435791016 57.781497955322266 35.77317428588867
C 53.7481575012207 59.9448356628418 33.226341247558594
C 52.64365768432617 54.423282623291016 34.89802551269531
C 56.61857986450195 59.00203323364258 31.55051040649414
C 56.0201301574707 58.35213851928711 30.481550216674805
C 54.96229934692383 55.03334426879883 30.172191619873047
C 57.314456939697266 56.33272933959961 30.932092666625977
C 51.74961471557617 57.086856842041016 35.70646286010742
C 52.2252311706543 58.405086517333984 35.04764175415039
C 51.34433364868164 56.40616989135742 34.363243103027344
C 51.85586166381836 58.49699020385742 33.72328186035156
C 54.151676177978516 57.28298568725586 29.847736358642578
C 55.18550491333008 56.07344436645508 36.527679443359375
C 51.75580978393555 55.09280014038086 34.09029769897461
C 51.223575592041016 57.31455612182617 33.31886672973633
C 53.418338775634766 53.63005447387695 34.012577056884766
C 52.64200973510742 58.95126724243164 31.50528335571289
C 53.49027633666992 58.953983306884766 35.402687072753906
C 55.66659164428711 58.7097053527832 35.83399200439453
C 55.3697395324707 54.07503128051758 35.2498779296875
C 56.47160720825195 56.46334457397461 36.10087203979492
C 56.35873794555664 57.0081672668457 30.1914119720459
C 54.20443344116211 59.74602127075195 34.48540496826172
C 52.08023452758789 57.76847457885742 31.057628631591797
C 56.888545989990234 54.0196418762207 33.56264114379883
C 55.690250396728516 53.425174713134766 33.1284294128418
C 53.82315444946289 53.80717849731445 31.649688720703125
C 52.603031158447266 55.607608795166016 30.6292724609375
C 57.48452377319336 58.741512298583984 33.62962341308594
C 55.973758697509766 59.856502532958984 32.3481330871582
C 53.6644401550293 54.681583404541016 30.634050369262695
C 57.988285064697266 57.018428802490234 32.026180267333984
C 52.0893669128418 56.17171096801758 37.91960525512695
N 50.93880081176758 56.72514724731445 37.96419143676758
C 50.542301177978516 57.3280143737793 36.65076446533203
H 50.25461959838867 58.374942779541016 36.776611328125
H 49.643733978271484 56.9002571105957 36.198829650878906
C 53.96342086791992 53.89467239379883 41.162322998046875
C 54.26466751098633 55.24483871459961 40.91555404663086
H 54.897220611572266 55.8964729309082 41.51290512084961
C 53.73379898071289 55.82551956176758 39.747371673583984
H 54.08366012573242 56.823116302490234 39.49443817138672
C 52.690982818603516 55.32094955444336 38.99869155883789
C 53.012081146240234 53.35310745239258 40.28672409057617
H 52.7154655456543 52.3101921081543 40.36363220214844
C 52.4477424621582 54.023319244384766 39.174041748046875
H 51.786930084228516 53.59779739379883 38.423160552978516
C 54.4981803894043 53.17594528198242 42.32019805908203
C 55.300228118896484 53.854732513427734 43.30706024169922
C 56.46287155151367 54.61929702758789 43.24576187133789
H 56.945125579833984 54.915584564208984 42.320091247558594
C 56.80315017700195 55.01755905151367 44.61170959472656
H 57.60079574584961 55.71182632446289 44.85454177856445
C 55.85051345825195 54.43081283569336 45.44093322753906
N 54.93569564819336 53.86262893676758 44.63105392456055
H 54.10091018676758 53.49478530883789 45.06688690185547
C 55.62723922729492 54.46713638305664 46.87186813354492
H 56.07845687866211 55.38779830932617 47.23888397216797
C 55.017215728759766 53.581478118896484 47.73707580566406
C 55.1639518737793 53.573604583740234 49.11525344848633
H 55.95047378540039 54.11982345581055 49.62541198730469
C 54.30783462524414 52.63436508178711 49.58310317993164
H 54.1898078918457 52.259464263916016 50.59440994262695
C 53.6628532409668 52.08037185668945 48.50428771972656
N 54.132686614990234 52.6417350769043 47.36897277832031
C 52.75017166137695 50.96059799194336 48.39568328857422
C 53.047122955322266 49.88615036010742 47.583248138427734
C 53.15353775024414 48.4769172668457 47.79155349731445
H 53.04457473754883 47.9646110534668 48.74176025390625
C 53.24724197387695 47.92583084106445 46.47085189819336
H 53.25655746459961 46.876216888427734 46.19617462158203
C 53.39329147338867 48.972713470458984 45.540809631347656
N 53.19093704223633 50.0621452331543 46.24137496948242
H 53.23421859741211 50.93411636352539 45.73155212402344
C 53.6818962097168 48.86116409301758 44.24685287475586
H 53.64413070678711 47.845340728759766 43.856201171875
C 53.97556686401367 49.86848068237305 43.24913024902344
C 54.17660903930664 49.70392990112305 41.84019088745117
H 54.21628189086914 48.803897857666016 41.23554611206055
C 54.33511734008789 51.00968551635742 41.388824462890625
H 54.5239372253418 51.31425857543945 40.36471176147461
C 54.230228424072266 51.83450698852539 42.43626403808594
N 54.11172866821289 51.14230728149414 43.546817779541016
C 49.268672943115234 50.82930374145508 50.96837615966797
C 49.49948501586914 49.85152053833008 50.081180572509766
H 48.7193489074707 49.0945930480957 50.07614517211914
C 50.5948600769043 49.85126876831055 49.19926071166992
H 50.73611831665039 49.10390853881836 48.42268371582031
C 51.558719635009766 50.902278900146484 49.23979949951172
C 50.10507583618164 51.94889450073242 50.975032806396484
H 49.90349197387695 52.704524993896484 51.72998046875
C 51.22201919555664 51.97916030883789 50.10612106323242
H 51.928897857666016 52.79123306274414 50.255897521972656
N 48.15921401977539 50.953487396240234 51.7687873840332
H 47.703121185302734 51.85292434692383 51.80174255371094
C 47.64553451538086 49.964839935302734 52.5760383605957
O 48.208438873291016 48.87785720825195 52.56890106201172
C 46.38137435913086 50.214229583740234 53.363826751708984
C 46.02023696899414 49.25458908081055 54.29841995239258
H 46.700008392333984 48.47579574584961 54.63452911376953
C 44.80740737915039 49.40192794799805 55.03429412841797
C 44.057376861572266 50.58961868286133 54.865360260009766
H 43.14755630493164 50.6137580871582 55.459678649902344
C 44.38386154174805 51.594844818115234 53.9726448059082
H 43.82838821411133 52.52859115600586 54.00650405883789
C 45.56357192993164 51.40900802612305 53.21028518676758
H 45.91958999633789 52.177494049072266 52.52892303466797
C 44.53874588012695 48.31867599487305 56.01537322998047
H 45.27670669555664 47.51871871948242 55.97788619995117
C 43.51846694946289 48.28189468383789 56.88660430908203
H 42.81868362426758 49.11418533325195 56.94594955444336
C 43.15311050415039 47.14041519165039 57.7219352722168
C 41.63210678100586 46.9423942565918 57.849830627441406
H 41.29557418823242 45.99143600463867 57.43163299560547
H 41.1645622253418 47.829166412353516 57.416812896728516
H 41.29813766479492 47.01401901245117 58.88703536987305
C 43.98212814331055 46.290279388427734 58.33731460571289
H 45.01822280883789 46.38814926147461 58.01660919189453
C 43.6151237487793 45.22500991821289 59.26999282836914
H 42.55720138549805 45.13169479370117 59.51085662841797
C 44.49380111694336 44.43996810913086 59.94023132324219
H 45.56052017211914 44.63454055786133 59.83935546875
C 44.07228469848633 43.32878112792969 60.77761459350586
C 45.070255279541016 43.05765151977539 61.89109420776367
H 45.54215621948242 44.012882232666016 62.1304817199707
H 44.65224838256836 42.66160583496094 62.81892776489258
H 45.92342758178711 42.478546142578125 61.531646728515625
C 42.887699127197266 42.68357467651367 60.70323944091797
H 42.19198226928711 42.85105895996094 59.882362365722656
C 42.52470779418945 41.55192184448242 61.517459869384766
H 43.1086540222168 41.32801055908203 62.408973693847656
C 41.39027786254883 40.88115692138672 61.414222717285156
H 40.74970626831055 41.11255645751953 60.564491271972656
C 40.90471267700195 39.90370178222656 62.345672607421875
H 41.55385208129883 39.68482208251953 63.19221115112305
C 39.75703048706055 39.193336486816406 62.4326057434082
C 38.59391403198242 39.249446868896484 61.46846389770508
H 38.85385513305664 39.667354583740234 60.4936637878418
H 38.20865249633789 38.25163269042969 61.24844741821289
H 37.875858306884766 39.94455337524414 61.90856170654297
C 39.45246505737305 38.2801628112793 63.54924774169922
H 38.3823127746582 38.278472900390625 63.750980377197266
C 40.29597854614258 37.519866943359375 64.31692504882812
H 41.375736236572266 37.52973175048828 64.17562866210938
C 39.7994270324707 36.66078567504883 65.41073608398438
H 38.73928451538086 36.42554473876953 65.49256134033203
C 40.41683578491211 35.81959533691406 66.21282958984375
C 41.91666030883789 35.786067962646484 66.19622802734375
H 42.28970718383789 35.32123947143555 67.1112289428711
H 42.299320220947266 35.28499984741211 65.30461883544922
H 42.1566276550293 36.851131439208984 66.21903228759766
C 39.86172103881836 34.876956939697266 67.20094299316406
H 40.51564407348633 34.558021545410156 68.01123809814453
C 38.56803512573242 34.4313850402832 67.32335662841797
H 37.88767623901367 34.76665496826172 66.54193115234375
C 38.00791549682617 33.49028015136719 68.27946472167969
C 38.14303207397461 33.60819625854492 69.57256317138672
C 38.74251174926758 34.79728698730469 70.24485778808594
H 38.28126907348633 35.03247833251953 71.20630645751953
H 39.80607223510742 34.59925842285156 70.39350891113281
H 38.59660720825195 35.66891860961914 69.60342407226562
C 37.54280471801758 32.63216781616211 70.55379486083984
H 36.57181930541992 32.95909881591797 70.93163299560547
H 38.251216888427734 32.555965423583984 71.3813247680664
C 37.42783737182617 31.170528411865234 69.89878845214844
H 36.98933792114258 30.37725067138672 70.50780487060547
H 38.3728141784668 30.785171508789062 69.51021575927734
C 36.43452835083008 31.435626983642578 68.67994689941406
H 36.18186569213867 30.54879379272461 68.09500885009766
H 35.49381637573242 31.697608947753906 69.16870880126953
C 37.06424331665039 32.43954086303711 67.65987396240234
C 37.77096176147461 31.696640014648438 66.63218688964844
H 38.76560592651367 31.45954132080078 67.0155258178711
H 37.4012336730957 30.698532104492188 66.3881607055664
H 37.97244644165039 32.238746643066406 65.70590209960938
C 35.935733795166016 32.95271301269531 66.7350082397461
H 36.35129165649414 33.43827438354492 65.84957122802734
H 35.22334671020508 32.18057632446289 66.43706512451172
H 35.40632247924805 33.68640899658203 67.34646606445312
