207
Triad, Carotenoid-Porphyrin-C60
C 48.57617950439453 33.21469497680664 42.14963912963867
C 47.38853073120117 32.64375686645508 48.52945327758789
C 45.8975944519043 32.61922836303711 46.73984909057617
C 45.90732192993164 32.2955207824707 44.419002532958984
C 49.75096893310547 32.12483596801758 48.82631301879883
C 48.681724548339844 33.01650619506836 48.92860794067383
C 48.29376983642578 30.430795669555664 47.99446487426758
C 46.47980880737305 30.4238224029541 45.883426666259766
C 49.14424133300781 31.075082778930664 42.4824104309082
C 49.55482482910156 30.863557815551758 48.45363998413086
C 47.458309173583984 32.462398529052734 42.58808517456055
C 52.37449645996094 33.01407241821289 46.64359664916992
C 50.8800048828125 32.831424713134766 48.4906120300293
C 52.35063171386719 32.67880630493164 44.23848342895508
C 51.179969787597656 30.61003303527832 43.68393325805664
C 51.67364501953125 31.85612678527832 43.29374313354492
C 51.65013122558594 30.98515510559082 47.13966751098633
C 48.426597595214844 29.518129348754883 46.97184371948242
C 47.54226303100586 29.52879524230957 45.862606048583984
C 49.336891174316406 29.455469131469727 44.323299407958984
C 47.87523651123047 36.27621841430664 45.67976760864258
C 48.84398651123047 35.87972640991211 46.73147964477539
C 46.81667709350586 35.18684768676758 46.05156326293945
C 47.04255294799805 34.659122467041016 47.26084518432617
C 51.04762268066406 34.04356002807617 42.98728561401367
C 50.21898651123047 35.77218246459961 46.514034271240234
C 46.513694763183594 33.02907180786133 43.38407516479492
C 51.993507385253906 34.3410530090332 46.49202346801758
C 50.44525909423828 34.15066909790039 48.2679328918457
C 51.955413818359375 34.01198959350586 44.072574615478516
C 46.14475631713867 34.43569564819336 45.11787796020508
C 52.122825622558594 30.8953800201416 45.86421585083008
C 51.38481140136719 30.101083755493164 44.97812271118164
C 47.9546012878418 29.601160049438477 44.56245803833008
C 49.78462219238281 29.499971389770508 46.70285415649414
C 48.32466506958008 36.239566802978516 44.202457427978516
C 49.79876708984375 35.87485122680664 44.09739303588867
C 47.678436279296875 35.10005569458008 43.322750091552734
C 49.99357604980469 34.960201263427734 43.05642318725586
C 49.92456817626953 30.22088050842285 43.24489974975586
C 48.30451583862305 35.063053131103516 47.66012191772461
C 46.597999572753906 34.33230209350586 43.762813568115234
C 48.72749328613281 34.51259231567383 42.58432388305664
C 45.68898391723633 33.14267349243164 45.45705032348633
C 50.89429473876953 32.71500015258789 42.48801040649414
C 50.722511291503906 35.763126373291016 45.199703216552734
C 50.999542236328125 34.91392135620117 47.309139251708984
C 46.57888412475586 33.41206741333008 47.6546516418457
C 49.08642578125 34.27608871459961 48.51375961303711
C 50.24640655517578 29.39903450012207 45.38199234008789
C 51.733612060546875 34.80184555053711 45.231510162353516
C 49.59407043457031 32.30891036987305 42.08992385864258
C 47.19137191772461 31.296968460083008 48.01790237426758
C 46.3112907409668 31.324800491333008 46.90412521362305
C 46.243194580078125 30.919702529907227 44.574275970458984
C 47.82344055175781 31.17270851135254 42.8053092956543
C 51.809104919433594 32.27479934692383 47.64926528930664
C 52.54573059082031 32.17892837524414 45.47976303100586
C 47.18103790283203 30.373735427856445 43.754695892333984
C 50.480506896972656 30.29631233215332 47.591739654541016
C 47.48340606689453 37.73170852661133 45.90361404418945
N 47.41087341308594 38.43338394165039 44.86458206176758
C 48.0518913269043 37.72951126098633 43.74477767944336
H 48.934173583984375 38.28171157836914 43.41116714477539
H 47.260345458984375 37.6790657043457 42.992733001708984
C 45.191261291503906 39.12643814086914 49.27165603637695
C 46.571502685546875 38.82383346557617 49.41499710083008
H 47.09196472167969 39.13337326049805 50.31769943237305
C 47.35378646850586 38.3471794128418 48.387691497802734
H 48.43115997314453 38.223628997802734 48.46235275268555
C 46.80696105957031 38.21196365356445 47.093746185302734
C 44.638065338134766 38.93466567993164 48.01984786987305
H 43.56953048706055 39.05245590209961 47.85883712768555
C 45.45002746582031 38.50432205200195 46.9546012878418
H 44.956642150878906 38.41849136352539 45.98983383178711
C 44.400360107421875 39.6679573059082 50.477046966552734
C 45.1839599609375 39.952884674072266 51.70591354370117
C 46.14066696166992 39.336055755615234 52.47987747192383
H 46.55107498168945 38.34706497192383 52.30471420288086
C 46.488792419433594 40.23165512084961 53.55936813354492
H 47.22184753417969 40.218868255615234 54.35918045043945
C 45.65414810180664 41.324459075927734 53.47481918334961
N 44.99332809448242 41.212284088134766 52.29641342163086
H 44.46631622314453 41.98093795776367 51.9045524597168
C 45.6147575378418 42.46694564819336 54.36660385131836
H 46.380619049072266 42.41813278198242 55.13925552368164
C 44.966453552246094 43.66706466674805 54.34848403930664
C 45.00335693359375 44.57321548461914 55.4000358581543
H 45.480072021484375 44.3513298034668 56.3491096496582
C 44.01457977294922 45.489566802978516 55.08632278442383
H 43.71377182006836 46.295772552490234 55.74721908569336
C 43.47760009765625 45.0966682434082 53.80576705932617
N 44.026432037353516 43.95054244995117 53.38724136352539
C 42.39769744873047 45.79286575317383 53.07722091674805
C 41.36238098144531 44.96596908569336 52.57295608520508
C 40.041282653808594 45.26180648803711 52.551761627197266
H 39.642486572265625 46.11568832397461 53.089420318603516
C 39.361515045166016 44.18842697143555 51.98612594604492
H 38.303348541259766 44.11223220825195 51.75873947143555
C 40.31875228881836 43.20510482788086 51.61349105834961
N 41.48619842529297 43.80385208129883 51.86440658569336
H 42.3145866394043 43.338741302490234 51.51860427856445
C 40.077823638916016 41.957454681396484 51.0667610168457
H 39.03501892089844 41.69880294799805 50.8890495300293
C 41.04628372192383 40.95198440551758 50.63376998901367
C 40.904754638671875 39.679508209228516 49.96206283569336
H 39.95552062988281 39.19894790649414 49.74936294555664
C 42.14577865600586 39.16842269897461 49.805904388427734
H 42.30843734741211 38.19257736206055 49.36037063598633
C 43.03044128417969 39.98896408081055 50.43924331665039
N 42.375362396240234 41.05891036987305 50.8590202331543
C 42.49199295043945 50.12324905395508 52.705196380615234
C 41.50461196899414 49.42221450805664 52.09071731567383
H 40.707698822021484 49.930606842041016 51.55402755737305
C 41.427677154541016 48.02968215942383 52.2696647644043
H 40.71391296386719 47.491031646728516 51.6516227722168
C 42.41446304321289 47.3209342956543 52.976322174072266
C 43.44412612915039 49.49831008911133 53.44772720336914
H 44.09698486328125 50.134822845458984 54.03951644897461
C 43.46039581298828 48.07789993286133 53.49210739135742
H 44.27970886230469 47.65996170043945 54.07143020629883
N 42.335105895996094 51.5743293762207 52.66983413696289
H 41.39923095703125 51.91022872924805 52.498409271240234
C 43.262176513671875 52.52045822143555 52.84013748168945
O 44.44629669189453 52.258663177490234 52.857242584228516
C 42.84233856201172 53.92185592651367 52.94460678100586
C 43.71092987060547 54.95279312133789 52.5445671081543
H 44.68050765991211 54.58064651489258 52.2236442565918
C 43.3773193359375 56.30353927612305 52.56447982788086
C 42.156593322753906 56.6660041809082 53.115779876708984
H 42.023345947265625 57.74105453491211 53.205745697021484
C 41.2891845703125 55.689876556396484 53.648006439208984
H 40.289207458496094 55.99032974243164 53.95023727416992
C 41.6286506652832 54.3618049621582 53.53439712524414
H 41.01774215698242 53.58066940307617 53.97958755493164
C 44.42194366455078 57.26301956176758 52.08305740356445
H 45.27172088623047 56.72927474975586 51.66007614135742
C 44.380271911621094 58.58743667602539 52.17502212524414
H 43.406822204589844 59.016536712646484 52.40779495239258
C 45.382198333740234 59.549434661865234 51.7546272277832
C 44.81972122192383 60.974063873291016 51.92459487915039
H 44.67261505126953 61.2501335144043 52.970829010009766
H 43.90397644042969 61.112796783447266 51.346134185791016
H 45.527565002441406 61.70541000366211 51.52890396118164
C 46.58790969848633 59.216670989990234 51.25382614135742
H 46.77462387084961 58.14582443237305 51.18794631958008
C 47.56191635131836 60.0621452331543 50.710269927978516
H 47.30503845214844 61.10197067260742 50.51352310180664
C 48.794654846191406 59.63828659057617 50.31986618041992
H 48.96638488769531 58.5752067565918 50.48202133178711
C 49.953590393066406 60.38168716430664 49.83182907104492
C 51.07897186279297 59.46781539916992 49.5346565246582
H 50.70996856689453 58.5797004699707 49.01741409301758
H 51.80842590332031 59.90096664428711 48.84709548950195
H 51.590858459472656 59.101566314697266 50.427005767822266
C 50.01643371582031 61.694576263427734 49.70061111450195
H 49.137001037597656 62.30118942260742 49.91164779663086
C 51.151641845703125 62.4981803894043 49.36520004272461
H 52.125694274902344 62.01205825805664 49.393978118896484
C 50.947776794433594 63.85288619995117 49.157840728759766
H 49.927268981933594 64.23175811767578 49.1269645690918
C 52.00397491455078 64.86820983886719 49.02225112915039
H 52.969017028808594 64.53668975830078 49.402652740478516
C 51.894500732421875 66.16644287109375 48.64577102661133
C 50.621726989746094 66.74878692626953 48.23737716674805
H 50.79045104980469 67.78475952148438 47.93613815307617
H 50.21730041503906 66.27511596679688 47.34041213989258
H 49.85064697265625 66.8131103515625 49.0079460144043
C 53.06330108642578 67.01144409179688 48.46010971069336
H 52.88361358642578 67.9112548828125 47.87362289428711
C 54.40245819091797 66.69999694824219 48.564823150634766
H 54.82624053955078 65.78663635253906 48.97968673706055
C 55.33233642578125 67.72393035888672 48.01664352416992
H 54.95519256591797 68.72100067138672 47.794071197509766
C 56.67662811279297 67.69441223144531 47.9139518737793
C 57.378379821777344 66.58879089355469 48.5288200378418
H 56.79082489013672 66.30482482910156 49.40437698364258
H 57.44811248779297 65.80018615722656 47.77669143676758
H 58.37034606933594 66.88519287109375 48.87611770629883
C 57.491859436035156 68.66973114013672 47.37215805053711
H 58.47710418701172 68.21125030517578 47.30135726928711
C 57.333709716796875 69.98161315917969 46.963626861572266
H 56.363739013671875 70.46588134765625 47.06637954711914
C 58.372840881347656 70.86270141601562 46.476924896240234
C 59.34679412841797 70.4471664428711 45.62368392944336
C 59.25941467285156 69.16361236572266 44.871456146240234
H 60.227745056152344 68.69972229003906 45.070499420166016
H 58.446128845214844 68.50947570800781 45.19260787963867
H 59.24578857421875 69.23548889160156 43.78190994262695
C 60.382659912109375 71.35124206542969 44.969669342041016
H 59.99250030517578 71.81254577636719 44.06003189086914
H 61.25458526611328 70.7834701538086 44.63822555541992
C 60.693634033203125 72.55848693847656 45.85956954956055
H 61.404876708984375 73.31109619140625 45.51291275024414
H 61.137718200683594 72.16883850097656 46.777957916259766
C 59.333152770996094 73.21358489990234 46.10927963256836
H 59.50340270996094 74.11418151855469 46.70291519165039
H 58.904083251953125 73.53983306884766 45.15958786010742
C 58.33765411376953 72.32466888427734 46.9144401550293
C 58.62248992919922 72.49594116210938 48.41850662231445
H 58.51917266845703 73.53370666503906 48.74226760864258
H 58.02738952636719 71.80199432373047 49.015811920166016
H 59.65025329589844 72.23090362548828 48.67525100708008
C 57.03694152832031 72.97624206542969 46.669376373291016
H 57.10155487060547 74.0305404663086 46.9464225769043
H 56.60673522949219 72.76148223876953 45.68893814086914
H 56.27503967285156 72.7421646118164 47.41582107543945
