207
Triad, Carotenoid-Porphyrin-C60
C 50.204444885253906 58.952762603759766 46.421470642089844
C 46.97557830810547 53.52055740356445 47.449424743652344
C 48.20307159423828 54.08633041381836 45.7231330871582
C 49.978668212890625 55.669551849365234 45.18305206298828
C 46.605072021484375 54.0836296081543 49.72209930419922
C 46.09386444091797 53.92036056518555 48.44407272338867
C 48.75707244873047 53.094974517822266 49.00774383544922
C 50.39295196533203 53.9465446472168 46.8109130859375
C 51.55449676513672 57.97690963745117 47.93658447265625
C 47.93260955810547 53.67789077758789 49.95628356933594
C 50.737060546875 57.845394134521484 45.87559127807617
C 46.86345672607422 57.42387771606445 50.99940490722656
C 46.01023864746094 55.21681594848633 50.22446060180664
C 48.591827392578125 59.02665328979492 50.512054443359375
C 50.70494842529297 57.893070220947266 50.17878723144531
C 49.932220458984375 59.059818267822266 50.02283477783203
C 48.124755859375 55.62338638305664 51.3092155456543
C 50.007408142089844 53.64213180541992 49.17665481567383
C 50.85107421875 53.99448013305664 48.078269958496094
C 51.589630126953125 56.019596099853516 49.364768981933594
C 45.75592041015625 57.49687576293945 45.55439376831055
C 45.185035705566406 57.0406379699707 46.85115051269531
C 46.518280029296875 56.24775314331055 45.23479461669922
C 46.04852294921875 55.15669631958008 45.997528076171875
C 48.596702575683594 59.91066360473633 48.38804244995117
C 45.229740142822266 57.82778549194336 47.986236572265625
C 49.971717834472656 57.06875991821289 45.01364517211914
C 45.98075866699219 58.08382797241211 50.041656494140625
C 45.24846267700195 55.85417556762695 49.34658432006836
C 47.779197692871094 59.6048698425293 49.50181198120117
C 47.812965393066406 56.25276565551758 44.75232696533203
C 48.89439392089844 56.75858688354492 51.39098358154297
C 50.156036376953125 56.75309371948242 50.86843490600586
C 51.59263610839844 55.17648696899414 48.24733352661133
C 49.99278259277344 54.42073440551758 50.31011962890625
C 46.577720642089844 58.83384323120117 45.55084991455078
C 46.73152160644531 59.4531135559082 46.9185791015625
C 48.11664581298828 58.62424087524414 45.23967361450195
C 48.08233642578125 59.82743453979492 47.143455505371094
C 51.575416564941406 57.4106330871582 49.21390151977539
C 45.278297424316406 55.68929672241211 46.99030685424805
C 48.567726135253906 57.39200973510742 44.70714569091797
C 48.89894104003906 59.37173843383789 46.09159469604492
C 48.65370178222656 55.19205856323242 45.003849029541016
C 49.93494415283203 59.65756607055664 48.74655532836914
C 46.049110412597656 58.949214935302734 48.011051177978516
C 45.22904968261719 57.24161911010742 49.25663375854492
C 46.89374542236328 54.07369613647461 46.21845626831055
C 45.23072814941406 55.05558395385742 48.2159309387207
C 50.703834533691406 55.59383773803711 50.31869125366211
C 46.49647521972656 59.11453628540039 49.31651306152344
C 50.702430725097656 59.067630767822266 47.72383499145508
C 48.294281005859375 53.06203079223633 47.68614959716797
C 49.06432342529297 53.4759407043457 46.62601089477539
C 50.827720642089844 55.04362106323242 46.07170867919922
C 51.523292541503906 57.194644927978516 46.845455169677734
C 46.84131622314453 56.0290641784668 51.05760955810547
C 48.13581848144531 57.90102005004883 51.2200927734375
C 51.583961486816406 55.810123443603516 46.9753303527832
C 48.663841247558594 54.47459030151367 50.762367248535156
C 44.62081527709961 57.77314376831055 44.535743713378906
N 44.618587493896484 58.9827995300293 44.07987594604492
C 45.768959045410156 59.751277923583984 44.5408821105957
H 45.43728256225586 60.62527847290039 45.10723876953125
H 46.433509826660156 59.951534271240234 43.69654083251953
C 41.5451774597168 54.80192184448242 43.772865295410156
C 42.73124313354492 54.782352447509766 43.0233154296875
H 42.79392623901367 54.0143928527832 42.25658416748047
C 43.749568939208984 55.72623062133789 43.372222900390625
H 44.627262115478516 55.71699142456055 42.73101806640625
C 43.53929138183594 56.743465423583984 44.289955139160156
C 41.38191604614258 55.7113151550293 44.83499526977539
H 40.525325775146484 55.610347747802734 45.49653244018555
C 42.3271484375 56.73640060424805 45.04063415527344
H 42.02316665649414 57.397151947021484 45.848453521728516
C 40.533897399902344 53.65964126586914 43.50575637817383
C 40.90910339355469 52.61967086791992 42.52389907836914
C 41.07686233520508 52.59352493286133 41.15842056274414
H 40.93896484375 53.497806549072266 40.57490539550781
C 41.29264450073242 51.22379684448242 40.771541595458984
H 41.38124465942383 50.88931655883789 39.743186950683594
C 41.29639434814453 50.42476272583008 41.91374969482422
N 41.143856048583984 51.360836029052734 42.94441604614258
H 41.25768280029297 51.1162223815918 43.91874694824219
C 41.56098175048828 49.0102424621582 42.242435455322266
H 42.037994384765625 48.40748977661133 41.47102355957031
C 41.42549133300781 48.3129997253418 43.47726058959961
C 42.481361389160156 47.66177749633789 44.10348129272461
H 43.4676399230957 47.49518966674805 43.6830940246582
C 42.060646057128906 47.39345169067383 45.355918884277344
H 42.65149688720703 47.00001907348633 46.17648696899414
C 40.699562072753906 47.7869987487793 45.40653610229492
N 40.32986831665039 48.26640701293945 44.25790023803711
C 39.84540557861328 47.66597366333008 46.544551849365234
C 38.8778076171875 48.55039596557617 46.96078872680664
C 37.56727981567383 48.227176666259766 47.41640853881836
H 37.2098503112793 47.308597564697266 47.86992645263672
C 36.84850311279297 49.424495697021484 47.35478591918945
H 35.81637191772461 49.57608413696289 47.653038024902344
C 37.595054626464844 50.48591995239258 46.773712158203125
N 38.774532318115234 49.8552131652832 46.499874114990234
H 39.50343704223633 50.36668014526367 46.021095275878906
C 37.159908294677734 51.73957443237305 46.42778396606445
H 36.19086456298828 52.04380416870117 46.820621490478516
C 37.836387634277344 52.7552375793457 45.55473327636719
C 37.45915985107422 54.10036087036133 45.334251403808594
H 36.50714111328125 54.54744338989258 45.60072326660156
C 38.46693801879883 54.5787467956543 44.459983825683594
H 38.56641387939453 55.59902572631836 44.10452651977539
C 39.482784271240234 53.594242095947266 44.38093948364258
N 39.06532287597656 52.56532669067383 45.02349853515625
C 40.094058990478516 43.83684158325195 48.65336608886719
C 39.56489562988281 44.96433639526367 49.242210388183594
H 39.03786087036133 44.88264083862305 50.18938064575195
C 39.37396240234375 46.16695785522461 48.550167083740234
H 38.92830276489258 47.0051383972168 49.07970428466797
C 39.98746109008789 46.34476089477539 47.2754020690918
C 40.6359977722168 43.95016098022461 47.391143798828125
H 41.134033203125 43.09225845336914 46.946693420410156
C 40.584720611572266 45.19826889038086 46.707218170166016
H 40.96696090698242 45.21523666381836 45.689781188964844
N 40.10173416137695 42.53879165649414 49.25653839111328
H 39.939998626708984 41.78800582885742 48.60213851928711
C 40.79882049560547 42.31074142456055 50.428070068359375
O 40.977596282958984 43.21237564086914 51.20891189575195
C 41.09498596191406 40.90077590942383 50.75221252441406
C 42.22328186035156 40.6226921081543 51.40987014770508
H 42.87470626831055 41.39474105834961 51.811336517333984
C 42.61799621582031 39.29013442993164 51.547569274902344
C 41.84538269042969 38.26156234741211 51.06025695800781
H 42.09815216064453 37.204402923583984 51.050777435302734
C 40.56615447998047 38.53554153442383 50.573246002197266
H 39.82308578491211 37.75650405883789 50.42320251464844
C 40.22627258300781 39.89970016479492 50.41598892211914
H 39.21857452392578 40.16385269165039 50.10560989379883
C 43.94834899902344 39.02460861206055 52.13316345214844
H 44.51150131225586 39.906856536865234 52.433868408203125
C 44.653900146484375 37.85160446166992 52.312198638916016
H 44.041927337646484 36.95096969604492 52.295806884765625
C 46.03607940673828 37.74595260620117 52.64564895629883
C 46.343955993652344 36.399173736572266 53.381954193115234
H 47.0845947265625 36.593936920166016 54.1604118347168
H 46.78345489501953 35.66831588745117 52.699928283691406
H 45.520362854003906 35.912296295166016 53.908363342285156
C 46.968017578125 38.60518264770508 52.27970504760742
H 46.584449768066406 39.41328048706055 51.65860366821289
C 48.35957336425781 38.626285552978516 52.59953308105469
H 48.86878967285156 37.76534652709961 53.030128479003906
C 49.16132354736328 39.6384162902832 52.232025146484375
H 48.76930236816406 40.548641204833984 51.780670166015625
C 50.57203674316406 39.70853805541992 52.53325653076172
C 51.06410217285156 39.01597213745117 53.72892379760742
H 51.31604766845703 39.8074836730957 54.43778991699219
H 50.361717224121094 38.389286041259766 54.282447814941406
H 51.956687927246094 38.422237396240234 53.52099609375
C 51.358154296875 40.51308822631836 51.852874755859375
H 50.77789306640625 41.10959243774414 51.15045928955078
C 52.795677185058594 40.6720085144043 52.095680236816406
H 53.17707824707031 40.3387565612793 53.05973434448242
C 53.6416015625 41.18782424926758 51.17990493774414
H 53.18439483642578 41.42093276977539 50.21941375732422
C 55.067405700683594 41.42538833618164 51.45372772216797
H 55.44342041015625 41.066104888916016 52.410518646240234
C 55.88520050048828 42.06515884399414 50.68578338623047
C 55.47301483154297 42.65762710571289 49.37763214111328
H 54.51770782470703 43.18661880493164 49.382408142089844
H 56.25713348388672 43.33505630493164 49.03310012817383
H 55.361854553222656 41.854976654052734 48.645606994628906
C 57.25463104248047 42.28049087524414 51.17971420288086
H 57.279563903808594 42.44076156616211 52.256568908691406
C 58.36628723144531 42.253353118896484 50.49737548828125
H 58.29524230957031 42.00600814819336 49.43921661376953
C 59.77705383300781 42.341251373291016 51.054012298583984
H 59.83094787597656 42.81369400024414 52.033714294433594
C 60.88029479980469 41.96706771850586 50.45681381225586
C 60.84288787841797 41.25728988647461 49.176795959472656
H 60.28239440917969 40.3251838684082 49.27412033081055
H 60.30531311035156 41.891353607177734 48.46867370605469
H 61.893714904785156 41.1153450012207 48.91586685180664
C 62.200172424316406 42.23843765258789 50.981075286865234
H 63.016563415527344 41.62508010864258 50.60264587402344
C 62.54486846923828 43.21970748901367 51.88017654418945
H 61.82061767578125 43.97378921508789 52.18471908569336
C 63.951255798339844 43.49398422241211 52.33665084838867
C 64.85509490966797 42.541561126708984 52.70169448852539
C 64.6896743774414 41.05253219604492 52.8600959777832
H 63.638275146484375 40.80057144165039 53.01347351074219
H 65.12135314941406 40.59397506713867 51.96799850463867
H 65.20439147949219 40.6031608581543 53.71192169189453
C 66.24210357666016 42.86343765258789 53.12662124633789
H 66.82217407226562 42.46613693237305 52.291072845458984
H 66.65569305419922 42.24362564086914 53.924896240234375
C 66.54463195800781 44.3332633972168 53.46532440185547
H 67.61753845214844 44.482540130615234 53.6033935546875
H 66.1624984741211 44.57468032836914 54.45938491821289
C 65.88227081298828 45.17458724975586 52.35103225708008
H 66.10093688964844 46.23615646362305 52.48418045043945
H 66.29082489013672 44.917842864990234 51.37142562866211
C 64.34542846679688 44.98684310913086 52.24228286743164
C 63.676422119140625 45.74141311645508 53.43351364135742
H 63.9962158203125 45.36623001098633 54.407901763916016
H 63.757911682128906 46.8294563293457 53.38905715942383
H 62.59674835205078 45.58407211303711 53.478389739990234
C 63.82783508300781 45.7119255065918 50.98410415649414
H 64.22325897216797 45.18928146362305 50.110633850097656
H 62.741790771484375 45.7967414855957 50.90811538696289
H 64.24003601074219 46.71559524536133 50.86086654663086
