207
Triad, Carotenoid-Porphyrin-C60
C 54.822635650634766 58.7392463684082 40.19055938720703
C 49.48044967651367 61.87301254272461 41.86397171020508
C 51.500125885009766 61.67135238647461 42.85494613647461
C 53.823917388916016 61.19272994995117 42.45335006713867
C 48.64067459106445 61.52092361450195 39.624000549316406
C 48.691585540771484 61.14219284057617 40.95908737182617
C 50.28261947631836 63.19569778442383 40.06647872924805
C 52.75993728637695 63.04910659790039 41.35679626464844
C 55.00210189819336 60.36576461791992 38.76283264160156
C 49.400936126708984 62.520442962646484 39.17426300048828
C 55.08670425415039 59.856998443603516 40.946144104003906
C 49.84348678588867 58.9593391418457 37.356971740722656
C 48.51752853393555 60.362125396728516 38.81446838378906
C 52.099430084228516 58.35634994506836 36.87446975708008
C 53.5023078918457 60.39945602416992 36.81024169921875
C 53.31977462768555 59.02463912963867 37.001956939697266
C 50.005863189697266 61.194271087646484 37.23501205444336
C 51.518680572509766 63.41384506225586 39.387638092041016
C 52.80739212036133 63.40610885620117 40.00232696533203
C 53.75386428833008 62.23605728149414 38.12287902832031
C 50.9398307800293 57.490474700927734 42.70192337036133
C 49.72407150268555 57.80144119262695 41.81852722167969
C 51.19113540649414 58.901309967041016 43.14966583251953
C 50.15047073364258 59.71792984008789 42.855037689208984
C 53.20902633666992 57.26552200317383 38.449851989746094
C 49.72346878051758 57.398380279541016 40.47203826904297
C 54.461605072021484 59.997196197509766 42.21031951904297
C 49.73881912231445 57.88936233520508 38.242530822753906
C 48.51786422729492 59.275325775146484 39.74311065673828
C 52.05778121948242 57.27114486694336 37.74905776977539
C 52.46834182739258 59.5118293762207 43.24592208862305
C 51.13520431518555 60.638851165771484 36.578636169433594
C 52.373966217041016 61.21152877807617 36.63075256347656
C 53.91604232788086 62.7801399230957 39.39744186401367
C 51.35872268676758 62.972415924072266 38.05768585205078
C 52.19309616088867 56.88797378540039 41.980289459228516
C 52.03782272338867 56.70383071899414 40.49068832397461
C 53.4829216003418 57.73723220825195 41.984310150146484
C 53.21736526489258 57.01797866821289 39.82823181152344
C 54.320438385009766 61.06105422973633 37.73772430419922
C 49.19441604614258 59.030155181884766 42.08646011352539
C 53.6227912902832 58.938961029052734 42.668067932128906
C 54.04526138305664 57.68717575073242 40.68183135986328
C 52.62112808227539 60.87641525268555 43.052791595458984
C 54.01712417602539 58.31448745727539 37.958431243896484
C 50.84878158569336 56.84176254272461 39.78144073486328
C 49.1023063659668 58.07255935668945 39.445499420166016
C 50.219539642333984 61.103633880615234 42.75592803955078
C 48.5805549621582 59.77487564086914 41.050384521484375
C 52.514766693115234 62.37714767456055 37.43340301513672
C 50.84963607788086 57.0707893371582 38.390018463134766
C 54.85055160522461 58.984989166259766 38.834861755371094
C 50.304203033447266 62.932865142822266 41.461151123046875
C 51.56178665161133 62.799678802490234 42.008235931396484
C 53.85599136352539 62.2743034362793 41.55348587036133
C 55.18339920043945 60.870235443115234 40.02647399902344
C 49.18742752075195 60.19417953491211 37.64204025268555
C 51.0180778503418 59.268375396728516 36.69735336303711
C 54.58560562133789 62.11777877807617 40.36286544799805
C 50.10447311401367 62.38833999633789 37.96199417114258
C 50.740665435791016 56.53998947143555 43.81269073486328
N 51.57194137573242 55.55299758911133 43.7923469543457
C 52.35287857055664 55.488895416259766 42.5900993347168
H 52.01292037963867 54.624271392822266 42.014339447021484
H 53.37617874145508 55.18549728393555 42.82558059692383
C 47.33261489868164 56.68753433227539 46.373252868652344
C 47.22919845581055 56.23490524291992 45.06467056274414
H 46.27848434448242 55.90218734741211 44.6559944152832
C 48.372066497802734 56.2086296081543 44.2425651550293
H 48.30478286743164 55.9157600402832 43.19792556762695
C 49.565975189208984 56.59086990356445 44.711639404296875
C 48.51931381225586 57.20377731323242 46.840755462646484
H 48.542171478271484 57.72299575805664 47.79545593261719
C 49.72543716430664 57.10688400268555 46.05663299560547
H 50.649532318115234 57.536373138427734 46.43499755859375
C 46.07902908325195 56.853450775146484 47.212730407714844
C 44.80374526977539 56.15732192993164 46.772254943847656
C 44.010372161865234 56.29750442504883 45.66790008544922
H 44.21723556518555 56.992374420166016 44.860694885253906
C 42.902015686035156 55.44101333618164 45.76282501220703
H 42.09331130981445 55.32973098754883 45.048095703125
C 43.02384567260742 54.83097457885742 47.00496292114258
N 44.150936126708984 55.23575210571289 47.602237701416016
H 44.499568939208984 54.76555252075195 48.42654800415039
C 42.23052978515625 53.90433883666992 47.67145538330078
H 41.62992858886719 53.27756881713867 47.013919830322266
C 42.49251174926758 53.226863861083984 48.86134338378906
C 42.85782241821289 51.86239242553711 48.9337272644043
H 42.856529235839844 51.16495132446289 48.10258483886719
C 43.31010055541992 51.702579498291016 50.267173767089844
H 43.71578598022461 50.79599380493164 50.70392608642578
C 43.04562759399414 52.9322624206543 50.92813491821289
N 42.538719177246094 53.878353118896484 50.060550689697266
C 43.38375473022461 53.274593353271484 52.3176155090332
C 44.00917434692383 54.43454360961914 52.67512130737305
C 43.815975189208984 55.10940933227539 53.906463623046875
H 43.255977630615234 54.65433883666992 54.71673583984375
C 44.29661178588867 56.37690353393555 53.797176361083984
H 44.331172943115234 57.17451095581055 54.53192138671875
C 44.766422271728516 56.59608840942383 52.44697952270508
N 44.535526275634766 55.43156051635742 51.86650848388672
H 44.86735153198242 55.23728561401367 50.931480407714844
C 45.209354400634766 57.726993560791016 51.90862274169922
H 45.412235260009766 58.52324295043945 52.623287200927734
C 45.64799880981445 57.948848724365234 50.53620529174805
C 46.15614700317383 59.090824127197266 49.95150375366211
H 46.2465705871582 60.053409576416016 50.44392395019531
C 46.40534591674805 58.7994499206543 48.633731842041016
H 46.684268951416016 59.52584457397461 47.8775749206543
C 46.168949127197266 57.4869270324707 48.484397888183594
N 45.65884017944336 56.98847579956055 49.612815856933594
C 42.857666015625 50.08302688598633 55.256004333496094
C 43.81782150268555 51.1108283996582 55.47096252441406
H 44.40614700317383 51.1245002746582 56.3848876953125
C 43.987857818603516 52.08586502075195 54.47201156616211
H 44.72590255737305 52.87632369995117 54.581748962402344
C 43.33097839355469 52.09608840942383 53.27937316894531
C 42.306060791015625 50.02053451538086 54.01262664794922
H 41.631290435791016 49.18092727661133 53.86665344238281
C 42.50053405761719 51.01057052612305 53.00865173339844
H 41.97795486450195 50.8460807800293 52.06980514526367
N 42.63685989379883 49.1525993347168 56.271183013916016
H 42.25019454956055 49.507747650146484 57.13283157348633
C 42.640647888183594 47.77938461303711 56.116050720214844
O 42.988277435302734 47.25636672973633 55.07915115356445
C 42.222415924072266 47.01137161254883 57.35703659057617
C 42.54132843017578 45.639957427978516 57.42233657836914
H 43.05965805053711 45.17747116088867 56.586265563964844
C 42.176246643066406 44.98646926879883 58.56884002685547
C 41.501564025878906 45.55911636352539 59.62056350708008
H 41.20626449584961 44.90475845336914 60.436763763427734
C 41.17384719848633 46.90180587768555 59.52199935913086
H 40.627288818359375 47.44252395629883 60.2904167175293
C 41.625431060791016 47.6634407043457 58.390586853027344
H 41.33045959472656 48.70956039428711 58.40449523925781
C 42.52256774902344 43.54874038696289 58.54755783081055
H 43.10660171508789 43.320735931396484 57.65714645385742
C 42.34372329711914 42.5860481262207 59.45405960083008
H 41.670989990234375 42.8479118347168 60.2693977355957
C 42.82147979736328 41.19892501831055 59.31089782714844
C 42.972267150878906 40.379024505615234 60.54967498779297
H 42.17812728881836 40.63945388793945 61.25251388549805
H 44.00144577026367 40.55295944213867 60.870609283447266
H 42.79606628417969 39.34946823120117 60.23119354248047
C 43.19944381713867 40.66232681274414 58.119903564453125
H 43.120086669921875 41.26877975463867 57.2188835144043
C 43.76858139038086 39.35115432739258 57.771942138671875
H 43.89976119995117 38.72079849243164 58.65021896362305
C 44.25252151489258 39.039608001708984 56.61286163330078
H 44.24765396118164 39.75636672973633 55.79301452636719
C 45.11525344848633 37.90095138549805 56.36875534057617
C 44.918155670166016 36.7208366394043 57.23691940307617
H 43.92409133911133 36.71383285522461 57.6888542175293
H 44.99258041381836 35.76701736450195 56.71046829223633
H 45.66890335083008 36.631221771240234 58.024837493896484
C 45.77260208129883 37.813777923583984 55.18338394165039
H 45.752140045166016 38.68721389770508 54.533302307128906
C 46.64230728149414 36.74562454223633 54.68720626831055
H 46.57736587524414 35.79214096069336 55.20927810668945
C 47.690494537353516 36.8896369934082 53.871978759765625
H 47.90206527709961 37.86659622192383 53.439876556396484
C 48.68806076049805 35.86983871459961 53.58095932006836
H 48.64339828491211 34.942745208740234 54.150543212890625
C 49.79361343383789 36.001766204833984 52.832191467285156
C 50.091304779052734 37.22147750854492 52.013954162597656
H 49.35085678100586 37.1745491027832 51.212711334228516
H 49.97651290893555 38.198062896728516 52.488895416259766
H 51.12289047241211 37.255977630615234 51.657447814941406
C 50.77253341674805 34.9822883605957 52.625762939453125
H 51.51017379760742 35.23415756225586 51.865257263183594
C 50.90822219848633 33.82120895385742 53.29983901977539
H 50.23920822143555 33.564456939697266 54.11985397338867
C 51.94450759887695 32.87612533569336 52.90351486206055
H 52.588077545166016 33.26657485961914 52.1165657043457
C 52.24959182739258 31.641450881958008 53.345027923583984
C 51.346675872802734 30.933969497680664 54.309993743896484
H 50.91812515258789 31.677507400512695 54.98523712158203
H 50.54276657104492 30.3731632232666 53.828643798828125
H 52.001644134521484 30.27573585510254 54.884620666503906
C 53.36247634887695 30.84946632385254 52.89210510253906
H 53.6945686340332 30.06151008605957 53.56646728515625
C 53.965999603271484 30.944856643676758 51.751407623291016
H 53.64011001586914 31.755891799926758 51.101844787597656
C 55.10331344604492 30.10051155090332 51.16082763671875
C 56.356754302978516 30.125764846801758 51.688209533691406
C 56.81254196166992 30.85350227355957 52.94169998168945
H 56.03781509399414 31.523828506469727 53.31974792480469
H 57.04844284057617 30.050378799438477 53.64299011230469
H 57.70643997192383 31.477907180786133 52.88243103027344
C 57.414432525634766 29.16600227355957 51.22873306274414
H 57.58668899536133 28.475549697875977 52.0570182800293
H 58.37149429321289 29.688814163208008 51.285011291503906
C 57.12620162963867 28.426721572875977 49.90266418457031
H 57.83173751831055 27.6225528717041 49.68357467651367
H 57.24797439575195 29.112184524536133 49.061370849609375
C 55.65199661254883 28.04393196105957 49.87643051147461
H 55.546443939208984 27.46672248840332 48.95547866821289
H 55.439693450927734 27.443254470825195 50.76332092285156
C 54.72800064086914 29.317766189575195 49.89656448364258
C 54.81169509887695 30.045320510864258 48.55728530883789
H 53.92898941040039 30.68625831604004 48.50749588012695
H 55.76437759399414 30.568056106567383 48.44952392578125
H 54.71853256225586 29.395692825317383 47.68449401855469
C 53.283023834228516 28.728151321411133 49.904361724853516
H 53.1882438659668 27.986330032348633 49.108642578125
H 53.092533111572266 28.152009963989258 50.81223678588867
H 52.55092239379883 29.537858963012695 49.93366241455078
