207
Triad, Carotenoid-Porphyrin-C60
C 39.635860443115234 38.6227912902832 33.89369583129883
C 41.10736846923828 41.499019622802734 39.444435119628906
C 40.71985626220703 42.39055252075195 37.43061447143555
C 39.603878021240234 41.91811752319336 35.356788635253906
C 40.7732048034668 39.44822311401367 40.7457275390625
C 41.5953483581543 40.37126541137695 40.11601257324219
C 38.842525482177734 40.87044906616211 40.00996780395508
C 38.296260833740234 42.000125885009766 37.41691970825195
C 37.620582580566406 38.45878982543945 35.03562545776367
C 39.36172103881836 39.685245513916016 40.66902160644531
C 39.076171875 39.93777084350586 34.12063217163086
C 40.698795318603516 36.15813064575195 39.202571868896484
C 41.276763916015625 38.12971115112305 40.4907112121582
C 39.55844497680664 35.620792388916016 37.13328552246094
C 37.544212341308594 36.79471206665039 36.82533264160156
C 38.57643127441406 36.13570022583008 36.29366683959961
C 38.94783401489258 37.28567123413086 40.17803192138672
C 37.72060775756836 40.535518646240234 39.300392150878906
C 37.4875373840332 41.03280258178711 38.00239944458008
C 36.69015121459961 38.90964126586914 37.217803955078125
C 43.72076416015625 39.80660629272461 35.947513580322266
C 43.63121795654297 39.14603042602539 37.33917999267578
C 42.84349822998047 41.00124740600586 36.25502395629883
C 42.72431945800781 41.1352653503418 37.66450119018555
C 40.52632522583008 36.365962982177734 35.11779022216797
C 43.40866470336914 37.80325698852539 37.58473205566406
C 39.94382095336914 40.97164535522461 34.35665512084961
C 41.888343811035156 36.31560134887695 38.501991271972656
C 42.50648498535156 38.26852798461914 39.792476654052734
C 40.75043487548828 35.80466842651367 36.42374801635742
C 41.804466247558594 41.45561599731445 35.46879959106445
C 38.43706512451172 36.56674575805664 39.075496673583984
C 37.4211540222168 37.03422164916992 38.237640380859375
C 37.03776550292969 40.25810623168945 36.973777770996094
C 37.44686508178711 39.137508392333984 39.52022933959961
C 43.13105773925781 38.939571380615234 34.76777267456055
C 42.57398986816406 37.56840133666992 35.28215026855469
C 41.87451171875 39.49363327026367 34.10918426513672
C 41.415462493896484 37.30790328979492 34.59355545043945
C 37.035152435302734 37.9909782409668 36.213157653808594
C 43.23215103149414 40.068790435791016 38.34438705444336
C 41.27676010131836 40.7010612487793 34.41828918457031
C 41.000946044921875 38.4381217956543 33.86153793334961
C 40.778358459472656 42.24838638305664 36.01240921020508
C 39.124244689941406 36.57761764526367 35.06220245361328
C 42.88539505004883 37.00534439086914 36.53501510620117
C 42.83422088623047 37.346797943115234 38.78499984741211
C 41.68624496459961 41.83951187133789 38.20952224731445
C 42.688331604003906 39.642337799072266 39.56489562988281
C 36.92369842529297 38.365901947021484 38.45745086669922
C 41.96558380126953 36.1091194152832 37.14775085449219
C 38.688228607177734 37.71873092651367 34.45069122314453
C 39.78023147583008 41.738956451416016 39.363731384277344
C 39.49536895751953 42.326473236083984 38.09576416015625
C 38.42824172973633 41.78567123413086 36.04792404174805
C 37.91759490966797 39.8062629699707 34.84490203857422
C 40.35777282714844 37.06905746459961 40.19017791748047
C 39.50681686401367 35.8685417175293 38.51716232299805
C 37.5997314453125 40.73386001586914 35.809410095214844
C 38.4521598815918 38.65021896362305 40.34171676635742
C 45.105953216552734 40.155635833740234 35.55624008178711
N 45.468841552734375 39.54951858520508 34.45934295654297
C 44.384796142578125 38.85750961303711 33.817325592041016
H 44.74040603637695 37.836917877197266 33.654258728027344
H 44.26423263549805 39.25251388549805 32.80535125732422
C 47.66648864746094 42.289546966552734 38.297786712646484
C 46.62232971191406 42.87118911743164 37.652252197265625
H 46.30573654174805 43.867557525634766 37.94989776611328
C 45.81917190551758 42.235172271728516 36.70466232299805
H 45.09941101074219 42.745365142822266 36.069664001464844
C 46.064388275146484 40.86821365356445 36.45038604736328
C 48.00029373168945 40.96030807495117 37.86654281616211
H 48.754150390625 40.35551071166992 38.3640251159668
C 47.19157409667969 40.2382926940918 37.02565383911133
H 47.359901428222656 39.21939468383789 36.68640899658203
C 48.54365921020508 42.93777084350586 39.297203063964844
C 48.108009338378906 44.2466926574707 39.892974853515625
C 47.813663482666016 45.46744155883789 39.35430145263672
H 47.88602066040039 45.66757583618164 38.290374755859375
C 47.44294357299805 46.32736587524414 40.393882751464844
H 47.14765548706055 47.369144439697266 40.32503890991211
C 47.455989837646484 45.623844146728516 41.566009521484375
N 47.828033447265625 44.35524368286133 41.24674606323242
H 47.970420837402344 43.63858413696289 41.945491790771484
C 47.15863800048828 46.09791946411133 42.90284729003906
H 46.14601516723633 46.49824905395508 42.918827056884766
C 47.72246551513672 45.58036422729492 44.03359603881836
C 47.165714263916016 45.902774810791016 45.30652618408203
H 46.19212341308594 46.35518264770508 45.46361541748047
C 48.00526809692383 45.30366134643555 46.23072052001953
H 47.86735916137695 45.23537826538086 47.304752349853516
C 49.132938385009766 44.77811050415039 45.471317291259766
N 48.92680740356445 44.96438217163086 44.10375213623047
C 50.40176773071289 44.223262786865234 45.91313552856445
C 50.937278747558594 43.052181243896484 45.438175201416016
C 51.33808135986328 41.8597526550293 46.089927673339844
H 51.45777130126953 41.835697174072266 47.16803741455078
C 51.631038665771484 40.8497428894043 45.16157531738281
H 52.03546905517578 39.84538650512695 45.23187255859375
C 51.24293518066406 41.32028579711914 43.853939056396484
N 50.77540969848633 42.62319564819336 44.1580696105957
H 50.41474151611328 43.19978713989258 43.41001510620117
C 51.420082092285156 40.75395584106445 42.59637451171875
H 52.12026596069336 39.92281723022461 42.52656555175781
C 50.86042785644531 41.154911041259766 41.30101013183594
C 51.267574310302734 40.780033111572266 39.97584915161133
H 52.064537048339844 40.07589340209961 39.7607421875
C 50.5156364440918 41.54762649536133 39.158416748046875
H 50.596099853515625 41.556156158447266 38.076438903808594
C 49.560237884521484 42.21072006225586 39.91023635864258
N 49.90010452270508 42.03531265258789 41.19902420043945
C 52.76040267944336 46.7536735534668 48.617347717285156
C 53.31039047241211 45.547054290771484 48.123085021972656
H 54.32840347290039 45.30949783325195 48.42106246948242
C 52.538909912109375 44.75236129760742 47.28541564941406
H 53.050392150878906 43.86612319946289 46.91860580444336
C 51.26019287109375 45.0893669128418 46.80278015136719
C 51.5407829284668 47.154842376708984 48.12346267700195
H 51.152748107910156 48.1007194519043 48.4926643371582
C 50.801273345947266 46.3207893371582 47.24889373779297
H 49.81456756591797 46.710453033447266 47.01192092895508
N 53.539695739746094 47.63637924194336 49.38634490966797
H 54.41239929199219 47.85941696166992 48.93167495727539
C 53.20134353637695 48.20906448364258 50.61729049682617
O 52.18528747558594 47.98814010620117 51.23404312133789
C 54.18415069580078 49.27486801147461 51.20416259765625
C 54.0164680480957 49.644283294677734 52.5203857421875
H 53.08567810058594 49.32316970825195 52.98091506958008
C 54.83243179321289 50.54629135131836 53.1166877746582
C 56.071136474609375 50.89113235473633 52.444217681884766
H 56.73616409301758 51.57545852661133 52.96480178833008
C 56.27043914794922 50.510738372802734 51.125858306884766
H 57.23371887207031 50.68195724487305 50.65220260620117
C 55.332252502441406 49.74513626098633 50.54937744140625
H 55.45013427734375 49.378170013427734 49.53300476074219
C 54.554744720458984 51.204288482666016 54.446163177490234
H 53.56077194213867 50.90632247924805 54.776554107666016
C 55.24748611450195 52.099246978759766 55.14494323730469
H 56.195457458496094 52.3951301574707 54.698028564453125
C 54.843788146972656 52.884395599365234 56.32744598388672
C 53.38398742675781 53.06479263305664 56.412654876708984
H 53.14928436279297 53.88125991821289 57.09877014160156
H 52.868709564208984 52.16085433959961 56.74408721923828
H 53.03594207763672 53.26646041870117 55.39744186401367
C 55.78025436401367 53.43655776977539 57.12632369995117
H 56.7979736328125 53.10683822631836 56.922725677490234
C 55.66117858886719 54.35183334350586 58.206764221191406
H 54.723976135253906 54.9026985168457 58.27090835571289
C 56.65694046020508 54.69752883911133 58.994937896728516
H 57.57218551635742 54.1308708190918 58.830177307128906
C 56.696353912353516 55.709468841552734 60.009037017822266
C 57.5793342590332 55.530216217041016 61.22072219848633
H 56.89006805419922 55.390254974365234 62.05605697631836
H 58.12552261352539 54.61330795288086 60.98960876464844
H 58.278114318847656 56.36445999145508 61.31122589111328
C 55.812171936035156 56.71641159057617 59.963932037353516
H 55.250858306884766 56.84358596801758 59.03944396972656
C 55.68122482299805 57.793575286865234 60.9112434387207
H 56.401371002197266 58.06709671020508 61.68098449707031
C 54.80664825439453 58.838253021240234 60.59992980957031
H 54.241390228271484 58.67121505737305 59.68423080444336
C 54.608009338378906 60.1388053894043 61.30793762207031
H 55.30235290527344 60.3127555847168 62.12864685058594
C 53.74749755859375 61.16946029663086 61.02113723754883
C 52.88300323486328 61.276485443115234 59.79953384399414
H 51.85304641723633 61.36869430541992 60.15045166015625
H 53.11465835571289 62.14638137817383 59.1814079284668
H 53.01337814331055 60.38644790649414 59.180419921875
C 53.72800064086914 62.35520553588867 61.871673583984375
H 53.42573928833008 63.3018913269043 61.42630386352539
C 54.04397201538086 62.32807540893555 63.183868408203125
H 54.378257751464844 61.42684555053711 63.69570541381836
C 54.07300567626953 63.49678421020508 64.04768371582031
H 53.7121696472168 64.42426300048828 63.605525970458984
C 54.380714416503906 63.53769302368164 65.32731628417969
C 54.890933990478516 62.353328704833984 66.067626953125
H 54.021453857421875 61.7487907409668 66.33409881591797
H 55.600257873535156 61.729549407958984 65.51969909667969
H 55.441768646240234 62.695247650146484 66.94634246826172
C 54.224185943603516 64.75399017333984 66.08445739746094
H 54.46821212768555 65.62942504882812 65.48446655273438
C 53.82767105102539 64.96346282958984 67.34384155273438
H 53.54010009765625 64.14469146728516 68.00175476074219
C 53.63072967529297 66.26400756835938 68.06138610839844
C 54.5594596862793 67.28178405761719 67.88490295410156
C 55.76587677001953 67.39054870605469 66.96174621582031
H 56.55447006225586 67.81131744384766 67.58908081054688
H 56.117347717285156 66.38555908203125 66.7190170288086
H 55.63920593261719 67.99016571044922 66.05792999267578
C 54.49776840209961 68.5888900756836 68.65237426757812
H 54.157615661621094 69.41722869873047 68.02738952636719
H 55.44782257080078 68.88196563720703 69.10401916503906
C 53.622093200683594 68.49687957763672 69.89242553710938
H 53.500667572021484 69.44053649902344 70.42835998535156
H 54.173095703125 67.85380554199219 70.58186340332031
C 52.28911209106445 67.85650634765625 69.45671081542969
H 51.59661102294922 68.00037384033203 70.28870391845703
H 51.855777740478516 68.39749145507812 68.6128921508789
C 52.48073959350586 66.3485107421875 69.0904541015625
C 52.703758239746094 65.49880981445312 70.41281127929688
H 53.68670654296875 65.76924896240234 70.80415344238281
H 52.020511627197266 65.80119323730469 71.20918273925781
H 52.59992980957031 64.42450714111328 70.246826171875
C 51.10603332519531 65.90020751953125 68.57671356201172
H 50.25687789916992 65.88398742675781 69.26310729980469
H 50.81351089477539 66.47013092041016 67.6923599243164
H 51.27223587036133 64.85488891601562 68.30811309814453
