207
Triad, Carotenoid-Porphyrin-C60
C 54.12924575805664 30.59605598449707 49.062408447265625
C 50.85663604736328 36.016048431396484 47.60628128051758
C 52.76482391357422 35.23400115966797 46.83369827270508
C 53.98634338378906 33.17905807495117 46.65204620361328
C 48.89849090576172 35.13486099243164 48.71994400024414
C 50.07498550415039 35.9629020690918 48.71458435058594
C 49.4149284362793 34.316444396972656 46.52941131591797
C 51.882301330566406 33.42556381225586 45.563697814941406
C 52.45893478393555 29.695955276489258 47.7957649230957
C 48.56497573852539 34.3527946472168 47.57858657836914
C 54.19452667236328 31.11436653137207 47.77823257446289
C 48.92506408691406 32.48181915283203 51.133609771728516
C 48.76255416870117 34.6726188659668 50.01465606689453
C 50.16674041748047 30.401159286499023 50.996238708496094
C 50.26124954223633 29.61333656311035 48.75655746459961
C 50.777557373046875 29.609750747680664 50.03389358520508
C 48.034271240234375 32.47393035888672 49.05805969238281
C 49.581932067871094 33.022438049316406 46.02070999145508
C 50.821205139160156 32.580101013183594 45.548683166503906
C 50.43067932128906 30.389963150024414 46.57524108886719
C 54.02827453613281 35.01266098022461 50.902793884277344
C 52.56461715698242 35.3365592956543 51.247764587402344
C 53.942501068115234 35.34963607788086 49.41862869262695
C 52.79380416870117 36.00911331176758 49.079811096191406
C 52.401329040527344 30.50324821472168 51.28014373779297
C 51.726863861083984 34.3944206237793 51.9129638671875
C 54.6365852355957 32.38826370239258 47.61463928222656
C 49.93400955200195 33.030418395996094 51.9006233215332
C 49.758548736572266 35.1840934753418 50.80975341796875
C 51.185569763183594 30.907529830932617 51.80390167236328
C 54.51619338989258 34.50910949707031 48.46120071411133
C 48.49628448486328 31.165616989135742 49.440101623535156
C 49.104331970214844 30.38929557800293 48.44602584838867
C 51.254173278808594 31.294931411743164 45.807151794433594
C 48.74346923828125 32.212249755859375 46.79411315917969
C 54.462650299072266 33.56498336791992 51.207916259765625
C 53.36001205444336 32.703365325927734 51.79866027832031
C 54.830909729003906 32.72304153442383 49.98155975341797
C 53.44926452636719 31.449037551879883 51.23427200317383
C 51.054412841796875 29.62123680114746 47.59640121459961
C 51.95174026489258 36.02656173706055 50.209983825683594
C 54.921714782714844 33.22471237182617 48.71577453613281
C 54.376869201660156 31.44939613342285 50.182525634765625
C 53.8998908996582 34.44719696044922 47.18302917480469
C 52.132381439208984 29.674047470092773 50.199710845947266
C 52.15729522705078 33.16667938232422 52.26072692871094
C 50.36789321899414 34.301753997802734 51.714256286621094
C 52.208580017089844 36.0253791809082 47.79718017578125
C 50.58834457397461 35.9515266418457 50.016387939453125
C 49.27504348754883 30.923810958862305 47.13039016723633
C 51.03850173950195 32.251163482666016 52.22651290893555
C 52.99367904663086 29.747655868530273 49.12419128417969
C 50.593135833740234 35.19163131713867 46.5108642578125
C 51.7789421081543 34.70466613769531 46.085548400878906
C 53.04704666137695 32.66087341308594 45.768646240234375
C 53.256587982177734 30.55303382873535 46.9865608215332
C 48.30994415283203 33.33721923828125 50.152198791503906
C 48.95240020751953 31.131059646606445 50.718414306640625
C 52.63313293457031 31.291345596313477 45.958770751953125
C 48.11962127685547 33.03415298461914 47.759918212890625
C 55.04487228393555 35.90486526489258 51.67504119873047
N 55.992610931396484 35.17503356933594 52.18459701538086
C 55.64040756225586 33.720977783203125 52.280521392822266
H 55.35640335083008 33.61802291870117 53.3309440612793
H 56.555450439453125 33.134796142578125 52.163299560546875
C 55.09925842285156 40.2553825378418 51.54508972167969
C 55.78693771362305 39.46782302856445 50.624568939208984
H 56.31834411621094 39.94025802612305 49.80238723754883
C 55.77626419067383 38.048343658447266 50.71188735961914
H 56.26615524291992 37.472415924072266 49.930938720703125
C 55.05997085571289 37.360713958740234 51.65576934814453
C 54.388790130615234 39.54239273071289 52.52789306640625
H 53.87834930419922 40.0330924987793 53.35265350341797
C 54.396522521972656 38.141117095947266 52.55543518066406
H 53.869693756103516 37.64145278930664 53.364356994628906
C 55.07406997680664 41.8003044128418 51.44045639038086
C 55.64718246459961 42.43415451049805 50.28520965576172
C 57.002342224121094 42.58845138549805 50.00523376464844
H 57.844505310058594 42.26131820678711 50.60604476928711
C 57.074581146240234 43.3842658996582 48.812843322753906
H 57.94716262817383 43.89560317993164 48.419960021972656
C 55.75831604003906 43.60612869262695 48.3754997253418
N 54.917266845703125 42.908267974853516 49.16459655761719
H 53.91106414794922 42.951480865478516 49.07626724243164
C 55.298500061035156 44.30216598510742 47.22161102294922
H 55.96589660644531 44.33547592163086 46.36172866821289
C 54.08803939819336 44.923152923583984 47.12036895751953
C 53.23357009887695 44.6400260925293 46.02067565917969
H 53.43706512451172 43.97642135620117 45.186744689941406
C 52.105018615722656 45.33182144165039 46.34251403808594
H 51.13176727294922 45.22109603881836 45.87588119506836
C 52.20660400390625 45.901302337646484 47.62428283691406
N 53.46663284301758 45.654422760009766 48.09290313720703
C 51.11680603027344 46.58344650268555 48.371299743652344
C 51.064117431640625 46.54938888549805 49.7692756652832
C 50.47090530395508 47.46622085571289 50.72050476074219
H 50.07070541381836 48.37961959838867 50.29299545288086
C 50.8035888671875 47.09932327270508 51.99751663208008
H 50.59605026245117 47.67143630981445 52.895755767822266
C 51.63547897338867 45.900943756103516 51.96027374267578
N 51.63105773925781 45.63618087768555 50.57776641845703
H 52.144779205322266 44.8679084777832 50.16791915893555
C 52.29484558105469 45.2862434387207 52.98653030395508
H 52.13174819946289 45.781490325927734 53.942588806152344
C 53.095985412597656 44.13682174682617 53.044219970703125
C 53.71487045288086 43.49910354614258 54.18104553222656
H 53.499149322509766 43.75397872924805 55.21338653564453
C 54.51917266845703 42.50087356567383 53.66814422607422
H 55.19635009765625 41.83846664428711 54.19717788696289
C 54.34654235839844 42.56166458129883 52.33927917480469
N 53.51552200317383 43.48667526245117 51.98387145996094
C 48.503700256347656 49.3454475402832 46.267372131347656
C 48.1680793762207 48.8501091003418 47.52830505371094
H 47.196292877197266 49.11063003540039 47.93980026245117
C 49.012107849121094 48.0128288269043 48.18611526489258
H 48.715370178222656 47.49074935913086 49.09217834472656
C 50.250099182128906 47.60737228393555 47.65463638305664
C 49.729042053222656 49.02946853637695 45.714012145996094
H 50.03716278076172 49.46712112426758 44.76791763305664
C 50.57954788208008 48.13681411743164 46.414485931396484
H 51.57863998413086 47.98380661010742 46.014522552490234
N 47.472991943359375 50.091373443603516 45.582523345947266
H 47.319610595703125 50.9281120300293 46.12512969970703
C 46.85945510864258 49.56406784057617 44.524253845214844
O 47.14301300048828 48.47114181518555 44.19880294799805
C 45.68821334838867 50.35124588012695 43.96104431152344
C 45.575721740722656 51.656612396240234 44.19499206542969
H 46.34542465209961 52.22811508178711 44.70735549926758
C 44.44194793701172 52.305301666259766 43.73099136352539
C 43.4980583190918 51.650569915771484 42.967430114746094
H 42.62078094482422 52.14438247680664 42.55741882324219
C 43.611595153808594 50.29220962524414 42.658172607421875
H 42.860225677490234 49.75725173950195 42.0829963684082
C 44.707496643066406 49.65492630004883 43.30043029785156
H 44.85695266723633 48.62009811401367 43.00315856933594
C 44.296295166015625 53.758113861083984 44.1459846496582
H 45.17821502685547 54.10160446166992 44.68464660644531
C 43.28904724121094 54.65961837768555 43.97723388671875
H 42.379920959472656 54.21329879760742 43.57697677612305
C 43.186702728271484 56.03114700317383 44.36355972290039
C 41.86669921875 56.64505386352539 44.16411590576172
H 41.258914947509766 55.97871780395508 43.54844665527344
H 41.78617858886719 57.669986724853516 43.79600143432617
H 41.37948226928711 56.635860443115234 45.141357421875
C 44.2909049987793 56.713565826416016 44.79439163208008
H 45.228275299072266 56.16927719116211 44.68946838378906
C 44.431190490722656 58.02579116821289 45.36653137207031
H 43.49713134765625 58.52341079711914 45.623111724853516
C 45.58904266357422 58.563480377197266 45.640830993652344
H 46.54451370239258 58.08004379272461 45.442596435546875
C 45.705875396728516 59.84514236450195 46.2663688659668
C 46.71099090576172 59.9592170715332 47.351837158203125
H 46.23947525024414 59.943546295166016 48.336666107177734
H 47.48484802246094 59.19343185424805 47.26703643798828
H 47.21944808959961 60.91121292114258 47.185611724853516
C 44.968013763427734 60.91362380981445 45.87803268432617
H 44.20258712768555 60.62638473510742 45.15863037109375
C 44.84331130981445 62.19357681274414 46.54558563232422
H 45.66920471191406 62.512943267822266 47.179481506347656
C 43.78921127319336 62.99752426147461 46.37797546386719
H 42.99711990356445 62.561092376708984 45.77131652832031
C 43.59191131591797 64.3620376586914 46.91160202026367
H 44.45773696899414 64.76199340820312 47.437252044677734
C 42.51414489746094 65.15426635742188 46.824153900146484
C 41.33954620361328 64.69122314453125 46.026302337646484
H 40.43331527709961 65.29844665527344 46.076133728027344
H 41.66134262084961 64.63200378417969 44.984474182128906
H 40.99269485473633 63.67758560180664 46.23767852783203
C 42.42816162109375 66.57611083984375 47.27217102050781
H 41.37627029418945 66.84465026855469 47.35781478881836
C 43.43985366821289 67.47555541992188 47.53059768676758
H 44.4840087890625 67.17955017089844 47.44089126586914
C 43.206993103027344 68.79913330078125 48.11906814575195
H 42.1674919128418 69.09715270996094 48.247703552246094
C 44.110294342041016 69.5684585571289 48.77024459838867
C 45.525089263916016 69.15336608886719 48.649993896484375
H 46.167701721191406 69.80245208740234 49.24849319458008
H 45.72152328491211 68.16853332519531 49.07892990112305
H 45.84284591674805 69.18787384033203 47.60581588745117
C 43.77729415893555 70.77540588378906 49.511566162109375
H 44.54169845581055 71.53663635253906 49.66035461425781
C 42.677223205566406 70.82047271728516 50.346595764160156
H 41.987003326416016 69.97837829589844 50.32683563232422
C 42.2579231262207 71.97342681884766 51.19059753417969
C 43.1754035949707 72.65552520751953 51.953060150146484
C 44.68834686279297 72.45873260498047 52.21051025390625
H 44.98135757446289 71.5870132446289 51.6216926574707
H 45.36677932739258 73.27734375 51.961368560791016
H 44.806922912597656 72.26781463623047 53.27913284301758
C 42.797569274902344 73.98217010498047 52.6330451965332
H 43.09833908081055 74.82733154296875 52.0103874206543
H 43.37958908081055 74.07911682128906 53.55191421508789
C 41.3151969909668 74.0277099609375 53.037044525146484
H 40.938392639160156 75.02587127685547 53.2697639465332
H 41.079586029052734 73.32119750976562 53.835662841796875
C 40.562705993652344 73.76189422607422 51.694847106933594
H 39.50840377807617 73.87444305419922 51.956085205078125
H 40.81575012207031 74.53050994873047 50.96159362792969
C 40.794036865234375 72.36418914794922 51.18144989013672
C 40.05842590332031 71.38433074951172 52.15630340576172
H 40.191802978515625 70.41910552978516 51.66334915161133
H 40.418128967285156 71.40531921386719 53.1871452331543
H 38.99509048461914 71.63026428222656 52.19241714477539
C 40.038604736328125 72.25244140625 49.8399658203125
H 40.725311279296875 72.65099334716797 49.09025573730469
H 39.69335174560547 71.26509857177734 49.526248931884766
H 39.15253829956055 72.88164520263672 49.73291778564453
