207
Triad, Carotenoid-Porphyrin-C60
C 39.78205871582031 40.37820816040039 45.23738098144531
C 41.1190185546875 45.29313278198242 49.316070556640625
C 39.585853576660156 43.67557907104492 49.490623474121094
C 39.072532653808594 41.46969985961914 48.669883728027344
C 43.18901062011719 45.73207473754883 48.06896209716797
C 41.88298034667969 46.036354064941406 48.383331298828125
C 43.0765266418457 43.89481735229492 49.67491912841797
C 41.130916595458984 41.83045196533203 50.002723693847656
C 41.66341781616211 39.624813079833984 46.167266845703125
C 43.77327346801758 44.65919494628906 48.76060485839844
C 39.5834846496582 40.213531494140625 46.62983703613281
C 43.89181900024414 44.635353088378906 44.718475341796875
C 43.42892074584961 45.97321319580078 46.731040954589844
C 43.43608856201172 42.41512680053711 43.87969970703125
C 43.71049118041992 40.67970657348633 45.544227600097656
C 43.132808685302734 41.16936111450195 44.360191345214844
C 44.743038177490234 43.98281478881836 46.67387390136719
C 43.427146911621094 42.58125686645508 49.51251983642578
C 42.46577453613281 41.519439697265625 49.658409118652344
C 43.36843490600586 40.381282806396484 47.699920654296875
C 38.32509231567383 44.938255310058594 45.633399963378906
C 39.54905319213867 45.796566009521484 45.64888000488281
C 38.367008209228516 44.51237869262695 47.13465881347656
C 39.2589111328125 45.376121520996094 47.823028564453125
C 41.311851501464844 41.954410552978516 43.44031524658203
C 40.49918746948242 45.57619857788086 44.695945739746094
C 38.70167922973633 41.06685256958008 47.35389709472656
C 42.704734802246094 45.12514877319336 44.17680358886719
C 42.20484924316406 46.4296760559082 46.17588806152344
C 42.277442932128906 42.918243408203125 43.31671905517578
C 38.06527328491211 43.180458068847656 47.59687042236328
C 44.72243881225586 42.91098403930664 45.80060577392578
C 44.513465881347656 41.57496643066406 46.265045166015625
C 42.39263916015625 40.50909423828125 48.723655700683594
C 44.403324127197266 42.44895935058594 48.514122009277344
C 38.291099548339844 43.76253890991211 44.582366943359375
C 39.546749114990234 43.609230041503906 43.732994079589844
C 38.315521240234375 42.34182357788086 45.29832458496094
C 39.92646789550781 42.2724609375 43.664649963378906
C 43.011009216308594 39.913246154785156 46.437591552734375
C 39.9661750793457 46.152122497558594 46.92449188232422
C 38.1226806640625 42.115169525146484 46.643890380859375
C 39.2341194152832 41.53223419189453 44.59614562988281
C 38.66460037231445 42.800209045410156 48.83149719238281
C 41.79558181762695 40.82961654663086 44.10707092285156
C 40.530853271484375 44.51411819458008 43.76024627685547
C 41.87949752807617 45.97965621948242 44.93891906738281
C 39.79135513305664 45.0128173828125 49.056968688964844
C 41.255638122558594 46.4642219543457 47.24345397949219
C 44.383750915527344 41.34431838989258 47.58269500732422
C 41.888267517089844 44.230812072753906 43.485084533691406
C 41.087425231933594 39.99921798706055 44.94373321533203
C 41.74418640136719 44.23099899291992 49.90636444091797
C 40.77172088623047 43.2067756652832 50.07893371582031
C 40.28654098510742 41.02241897583008 49.2037353515625
C 40.71852111816406 39.599369049072266 47.186981201171875
C 44.216007232666016 45.11091232299805 45.98883056640625
C 44.23147964477539 43.31572723388672 44.6019287109375
C 41.02949142456055 40.15618896484375 48.438720703125
C 44.5848503112793 43.76879119873047 48.034996032714844
C 37.114315032958984 45.77267074584961 45.342384338378906
N 36.56585693359375 45.48175048828125 44.269386291503906
C 37.03181838989258 44.18230438232422 43.74744415283203
H 37.33555221557617 44.23813247680664 42.698974609375
H 36.2672004699707 43.40134048461914 43.757476806640625
C 36.35188674926758 49.52685546875 47.49888610839844
C 36.42156982421875 48.27644729614258 48.13965606689453
H 36.34518051147461 48.2513313293457 49.22367858886719
C 36.567657470703125 47.0470085144043 47.45198059082031
H 36.5510139465332 46.11248779296875 48.006927490234375
C 36.7515754699707 47.05646896362305 46.08418273925781
C 36.61473846435547 49.47797393798828 46.148887634277344
H 36.82115936279297 50.40758514404297 45.62468719482422
C 36.68208312988281 48.28234100341797 45.42993927001953
H 36.97914505004883 48.18364715576172 44.38898468017578
C 36.118988037109375 50.89759826660156 48.16674041748047
C 35.993526458740234 50.930198669433594 49.63996124267578
C 35.27946472167969 50.19830322265625 50.534523010253906
H 34.57305145263672 49.416404724121094 50.2760009765625
C 35.598941802978516 50.63863754272461 51.84282684326172
H 35.34389877319336 50.29121398925781 52.83855438232422
C 36.53849411010742 51.63038635253906 51.69690704345703
N 36.73403549194336 51.78559112548828 50.34428405761719
H 37.38431167602539 52.37202835083008 49.838966369628906
C 37.305320739746094 52.25251388549805 52.74064636230469
H 36.99665069580078 52.068721771240234 53.76868438720703
C 38.30267333984375 53.18787384033203 52.614105224609375
C 38.83147430419922 53.87371826171875 53.71685791015625
H 38.5956916809082 53.82286834716797 54.77471160888672
C 39.5587158203125 54.839942932128906 53.128990173339844
H 40.0594367980957 55.74134063720703 53.46659851074219
C 39.67561721801758 54.57209014892578 51.74082946777344
N 38.79585266113281 53.62715148925781 51.39410400390625
C 40.47575378417969 55.36138916015625 50.748992919921875
C 39.996681213378906 55.772483825683594 49.498504638671875
C 40.065303802490234 57.068023681640625 48.90375518798828
H 40.54414367675781 57.94993591308594 49.31626892089844
C 39.293827056884766 57.098388671875 47.74982452392578
H 39.13618469238281 58.00068664550781 47.168251037597656
C 38.59062194824219 55.79229736328125 47.63232421875
N 39.151371002197266 55.14054870605469 48.69511413574219
H 39.02101135253906 54.15519714355469 48.880088806152344
C 37.61136245727539 55.360382080078125 46.81462097167969
H 37.339542388916016 56.06062316894531 46.02613830566406
C 36.9434700012207 54.08812713623047 46.77893829345703
C 35.99238967895508 53.619239807128906 45.83967590332031
H 35.6032600402832 54.20196533203125 45.01127624511719
C 35.5109748840332 52.45283889770508 46.31891632080078
H 34.71711730957031 51.78190612792969 46.00768280029297
C 36.17866516113281 52.09642791748047 47.44025421142578
N 37.02340316772461 53.120758056640625 47.67332458496094
C 44.726768493652344 56.04783630371094 51.69219207763672
C 44.18452835083008 56.60985565185547 50.575286865234375
H 44.894256591796875 57.13414764404297 49.94048309326172
C 42.82912063598633 56.353302001953125 50.234458923339844
H 42.44834518432617 56.85863494873047 49.35059356689453
C 41.93125534057617 55.645355224609375 51.091705322265625
C 43.88557052612305 55.45597839355469 52.58244323730469
H 44.30825424194336 55.06694030761719 53.5052490234375
C 42.52364730834961 55.23999786376953 52.33110809326172
H 41.99863052368164 54.57054901123047 53.00769805908203
N 46.08366394042969 56.1973876953125 52.063209533691406
H 46.28192138671875 57.155616760253906 52.309326171875
C 47.026607513427734 55.27546691894531 52.16548156738281
O 46.787269592285156 54.129058837890625 51.860748291015625
C 48.377010345458984 55.82743835449219 52.679901123046875
C 49.556575775146484 55.249732971191406 52.31141662597656
H 49.537654876708984 54.357749938964844 51.69047546386719
C 50.80184555053711 55.77958679199219 52.58612060546875
C 50.8134880065918 56.91264343261719 53.357093811035156
H 51.74370193481445 57.392906188964844 53.64970397949219
C 49.62331008911133 57.581939697265625 53.740997314453125
H 49.81572341918945 58.347137451171875 54.488677978515625
C 48.39650344848633 57.01275634765625 53.45069885253906
H 47.52055740356445 57.49989318847656 53.87139892578125
C 52.001346588134766 55.09599304199219 52.16676330566406
H 51.842464447021484 54.23285675048828 51.52203369140625
C 53.29094314575195 55.439727783203125 52.38179016113281
H 53.549076080322266 56.30821228027344 52.98596954345703
C 54.46017837524414 54.670196533203125 52.15155029296875
C 54.23015213012695 53.183563232421875 52.089500427246094
H 53.41499710083008 52.786216735839844 52.697853088378906
H 55.18391799926758 52.80126953125 52.45915222167969
H 53.99409866333008 52.780433654785156 51.10247039794922
C 55.70120620727539 55.18793487548828 52.00030517578125
H 55.83034896850586 56.258079528808594 52.15533447265625
C 56.9170036315918 54.47431945800781 51.51307678222656
H 56.7902946472168 53.44829559326172 51.17082214355469
C 58.157955169677734 54.939781188964844 51.74516296386719
H 58.10185623168945 55.911598205566406 52.233375549316406
C 59.441837310791016 54.29120635986328 51.538475036621094
C 60.571292877197266 55.04529571533203 52.18037414550781
H 61.22091293334961 55.49290466308594 51.425315856933594
H 60.14921951293945 55.83026123046875 52.811363220214844
H 61.12697219848633 54.35517120361328 52.81866455078125
C 59.58598709106445 53.11841583251953 50.87171936035156
H 58.76674270629883 52.80683898925781 50.225433349609375
C 60.730533599853516 52.22432327270508 50.71488952636719
H 61.638858795166016 52.40469741821289 51.28790283203125
C 60.679874420166016 51.11803436279297 49.99461364746094
H 59.79421615600586 51.10222244262695 49.36115264892578
C 61.81584548950195 50.25184631347656 49.72627258300781
H 62.7127571105957 50.590091705322266 50.243064880371094
C 61.92281723022461 49.118221282958984 48.99421691894531
C 60.79399490356445 48.52769088745117 48.40129089355469
H 60.94833755493164 47.456024169921875 48.25926971435547
H 59.922847747802734 48.655731201171875 49.04718780517578
H 60.58625411987305 48.89976501464844 47.3958740234375
C 63.1876335144043 48.369056701660156 48.901954650878906
H 63.878658294677734 48.566444396972656 49.72015380859375
C 63.58406448364258 47.7381706237793 47.81121826171875
H 62.96547317504883 47.68443298339844 46.91658020019531
C 64.83662414550781 46.96434783935547 47.75469207763672
H 65.4151840209961 46.84502410888672 48.66954040527344
C 65.37236785888672 46.29227828979492 46.72333526611328
C 64.62094116210938 46.27686309814453 45.374244689941406
H 65.20881652832031 45.70439529418945 44.65373229980469
H 63.57355880737305 45.972503662109375 45.427330017089844
H 64.53276824951172 47.28699493408203 44.96887969970703
C 66.58788299560547 45.416831970214844 46.85038757324219
H 66.69294738769531 44.79197692871094 45.964698791503906
C 67.47406768798828 45.376930236816406 47.892051696777344
H 67.32418823242188 46.050540924072266 48.7344970703125
C 68.79205322265625 44.625736236572266 47.86937713623047
C 68.98313903808594 43.45332336425781 47.164642333984375
C 67.90494537353516 42.48978042602539 46.76362609863281
H 66.99266815185547 42.847259521484375 47.24571990966797
H 67.78437805175781 42.6338005065918 45.687896728515625
H 68.14263916015625 41.47196960449219 47.07987976074219
C 70.28116607666016 42.67351150512695 47.13029479980469
H 70.38143157958984 42.304771423339844 46.107337951660156
H 70.12049865722656 41.72780990600586 47.652122497558594
C 71.48040008544922 43.50033950805664 47.67991638183594
H 71.83588409423828 44.25334167480469 46.97345733642578
H 72.27397155761719 42.77067565917969 47.853981018066406
C 71.11300659179688 44.2921142578125 48.93894958496094
H 70.80674743652344 43.53451156616211 49.66331481933594
H 71.9508285522461 44.812713623046875 49.407447814941406
C 69.9312744140625 45.21360778808594 48.7327880859375
C 69.61209106445312 45.696319580078125 50.1337890625
H 69.10743713378906 46.66384506225586 50.09269714355469
H 68.82743072509766 45.109859466552734 50.61634063720703
H 70.43358612060547 45.80970764160156 50.84424591064453
C 70.38542175292969 46.50751876831055 47.98833465576172
H 69.56199645996094 47.204200744628906 47.81785583496094
H 71.16392517089844 46.91377258300781 48.63744354248047
H 70.89990997314453 46.23798370361328 47.06360626220703
