207
Triad, Carotenoid-Porphyrin-C60
C 48.21455383300781 62.432823181152344 63.403465270996094
C 46.72020721435547 64.03723907470703 57.194480895996094
C 45.63090515136719 62.77706527709961 58.7573127746582
C 45.37064743041992 62.35301208496094 61.20977020263672
C 48.53759765625 65.6541519165039 57.22526550292969
C 47.988372802734375 64.408203125 56.80728530883789
C 46.47300720214844 66.11567687988281 58.440589904785156
C 44.99529266357422 64.60643005371094 60.23572540283203
C 47.620750427246094 64.55382537841797 63.75341033935547
C 47.7559700012207 66.53521728515625 58.00833511352539
C 46.844764709472656 62.48863220214844 63.11165237426758
C 51.27595520019531 65.62240600585938 59.53520965576172
C 49.829715728759766 65.47917938232422 57.55742263793945
C 51.109039306640625 65.23274993896484 61.86917495727539
C 49.17317199707031 66.26025390625 62.8409309387207
C 50.172733306884766 65.29088592529297 62.9068489074707
C 49.61769485473633 67.11060333251953 59.37593460083008
C 46.24050521850586 66.60273742675781 59.72700881958008
C 45.479000091552734 65.88050842285156 60.6059684753418
C 47.0164794921875 66.5028305053711 62.34831619262695
C 49.10390853881836 60.45188522338867 59.05678939819336
C 49.83403396606445 61.54084777832031 58.20730972290039
C 47.72018814086914 60.95227813720703 58.853294372558594
C 47.57649612426758 61.780303955078125 57.749847412109375
C 50.746707916259766 63.163536071777344 62.60298156738281
C 50.8580207824707 62.28553771972656 58.70244216918945
C 46.30701446533203 61.74810028076172 62.02841567993164
C 51.6236457824707 64.29193878173828 59.35355758666992
C 50.18523025512695 64.12661743164062 57.39030838012695
C 51.50528335571289 63.911930084228516 61.709346771240234
C 46.73672866821289 60.98683166503906 59.890254974365234
C 50.00535583496094 67.0699691772461 60.69706726074219
C 49.10437774658203 67.16224670410156 61.74985122680664
C 45.85713577270508 65.839111328125 61.94807815551758
C 47.277801513671875 67.40127563476562 60.11606979370117
C 49.56725311279297 60.32130432128906 60.50835418701172
C 50.62171173095703 61.32415771484375 60.9545783996582
C 48.49735641479492 60.777191162109375 61.524505615234375
C 50.25810241699219 61.94525909423828 62.23845672607422
C 47.90227127075195 65.85103607177734 63.25023651123047
C 48.8583869934082 62.138065338134766 57.32162857055664
C 47.12654495239258 60.87556457519531 61.2333869934082
C 49.004520416259766 61.55833435058594 62.57575988769531
C 45.69065475463867 61.94136428833008 59.897457122802734
C 49.92076110839844 64.03012084960938 63.355079650878906
C 51.27763748168945 62.22882080078125 60.03887176513672
C 51.08210754394531 63.583221435546875 58.28697967529297
C 46.557945251464844 62.75741195678711 57.66859817504883
C 49.05210876464844 63.46133804321289 56.900306701660156
C 47.72706604003906 67.30638122558594 61.467735290527344
C 51.770442962646484 63.448448181152344 60.4205322265625
C 48.66888427734375 63.66608810424805 63.82829284667969
C 45.99496078491211 64.8905258178711 58.04820251464844
C 45.255252838134766 64.10717010498047 58.95642852783203
C 45.10893630981445 63.74433135986328 61.370033264160156
C 46.48811721801758 63.84829330444336 63.33026123046875
C 50.371665954589844 66.20401000976562 58.62754440307617
C 50.9794807434082 66.11041259765625 60.78173065185547
C 45.65550231933594 64.51502990722656 62.39216232299805
C 48.28160858154297 67.24117279052734 59.110084533691406
C 49.197547912597656 58.99041748046875 58.53934860229492
N 49.68752670288086 58.176876068115234 59.42055130004883
C 49.98102951049805 58.877479553222656 60.629764556884766
H 51.04989242553711 58.791812896728516 60.841529846191406
H 49.40013122558594 58.46158218383789 61.456947326660156
C 47.21559143066406 57.64946746826172 54.943328857421875
C 48.4001579284668 58.4180793762207 54.91887283325195
H 48.79603576660156 58.59248733520508 53.921661376953125
C 48.98939514160156 58.8963508605957 56.11785888671875
H 49.8615608215332 59.54202651977539 56.05458068847656
C 48.53013229370117 58.490699768066406 57.35453414916992
C 46.67868423461914 57.409629821777344 56.18592071533203
H 45.76053237915039 56.827877044677734 56.196998596191406
C 47.29878616333008 57.81412887573242 57.40772247314453
H 46.98527908325195 57.5870246887207 58.42345428466797
C 46.63018035888672 57.1347770690918 53.58380889892578
C 47.3126335144043 57.237064361572266 52.280235290527344
C 47.96037292480469 58.1837272644043 51.54234313964844
H 48.23593521118164 59.212406158447266 51.74998092651367
C 48.42089080810547 57.62760925292969 50.36910629272461
H 49.017330169677734 58.156280517578125 49.632904052734375
C 48.05868148803711 56.338348388671875 50.31645202636719
N 47.19917297363281 56.217613220214844 51.40184020996094
H 46.7110595703125 55.35051345825195 51.58073806762695
C 48.23160171508789 55.20282745361328 49.3788948059082
H 48.8106689453125 55.488609313964844 48.502010345458984
C 47.9383430480957 53.904327392578125 49.50656509399414
C 48.854698181152344 52.90430450439453 49.53504180908203
H 49.915767669677734 53.05451583862305 49.365352630615234
C 48.135738372802734 51.82269287109375 50.00149917602539
H 48.63092041015625 50.860477447509766 50.07998275756836
C 46.73903274536133 52.10731887817383 50.00871276855469
N 46.62488555908203 53.445289611816406 49.81608581542969
C 45.630027770996094 51.21453857421875 50.44456481933594
C 44.5568962097168 51.68476486206055 51.18320846557617
C 43.12632369995117 51.2930908203125 51.015350341796875
H 42.76383590698242 50.52378463745117 50.341556549072266
C 42.392982482910156 52.11594772338867 51.824981689453125
H 41.328346252441406 52.107322692871094 52.03403091430664
C 43.245140075683594 53.09580612182617 52.394126892089844
N 44.47754669189453 52.7430419921875 51.95512390136719
H 45.306304931640625 53.29170227050781 52.14020919799805
C 42.87723159790039 54.162933349609375 53.14097213745117
H 41.85824966430664 54.134315490722656 53.524078369140625
C 43.61955642700195 55.3320198059082 53.58268737792969
C 43.1995849609375 56.50895309448242 54.309810638427734
H 42.24501419067383 56.69826126098633 54.78958511352539
C 44.35075378417969 57.2307014465332 54.320648193359375
H 44.40028762817383 58.16682052612305 54.86695861816406
C 45.35969924926758 56.58717727661133 53.69316482543945
N 44.93555450439453 55.40907669067383 53.24189758300781
C 45.65738296508789 46.97279357910156 49.27043533325195
C 44.712589263916016 47.45852279663086 50.137420654296875
H 44.07034683227539 46.78004837036133 50.69308853149414
C 44.7405891418457 48.79590606689453 50.562103271484375
H 44.003116607666016 49.061500549316406 51.31521224975586
C 45.66178894042969 49.73635482788086 50.04362487792969
C 46.70530700683594 47.86458969116211 48.81583786010742
H 47.44888687133789 47.569454193115234 48.07993698120117
C 46.59415054321289 49.230831146240234 49.162025451660156
H 47.32215118408203 49.90507888793945 48.71820831298828
N 45.45762634277344 45.60753631591797 48.75318908691406
H 44.57706832885742 45.214351654052734 49.050010681152344
C 46.35127258300781 44.79228591918945 47.99983215332031
O 47.47799301147461 45.23616409301758 47.69791030883789
C 45.76018524169922 43.45274353027344 47.492523193359375
C 46.417545318603516 42.67573928833008 46.56964111328125
H 47.327213287353516 43.10793685913086 46.160640716552734
C 45.890663146972656 41.45188522338867 46.133087158203125
C 44.77764892578125 40.91352844238281 46.762535095214844
H 44.36398696899414 39.92643737792969 46.57252502441406
C 44.20851135253906 41.670902252197266 47.80784225463867
H 43.401092529296875 41.19815444946289 48.36115646362305
C 44.6744384765625 42.910621643066406 48.15389633178711
H 44.19154357910156 43.45920181274414 48.958534240722656
C 46.53606414794922 40.79160690307617 44.92912292480469
H 47.42149353027344 41.35114669799805 44.63104248046875
C 46.13951873779297 39.71881103515625 44.183101654052734
H 45.13459014892578 39.333953857421875 44.35019302368164
C 46.757659912109375 39.074432373046875 43.01800537109375
C 48.03110122680664 39.67436599731445 42.48482131958008
H 47.95148849487305 40.219810485839844 41.54215621948242
H 48.71627426147461 38.84457015991211 42.29924011230469
H 48.64722442626953 40.22697067260742 43.19719696044922
C 46.15104293823242 38.010990142822266 42.43307876586914
H 45.15404510498047 37.70252990722656 42.74415969848633
C 46.813114166259766 37.27835464477539 41.320465087890625
H 47.62653732299805 37.72478485107422 40.75041198730469
C 46.444480895996094 35.98069381713867 41.04425048828125
H 45.636837005615234 35.504676818847656 41.598358154296875
C 47.089561462402344 35.0949821472168 40.124290466308594
C 46.94612121582031 33.678035736083984 40.46717071533203
H 46.216331481933594 33.57502746582031 41.272945404052734
H 46.54663848876953 33.177490234375 39.582672119140625
H 47.873836517333984 33.197227478027344 40.78438949584961
C 47.86251449584961 35.33797836303711 39.05780792236328
H 48.024478912353516 36.39244079589844 38.83918380737305
C 48.65414810180664 34.54339599609375 38.108299255371094
H 48.6204719543457 33.46419143676758 38.250091552734375
C 49.4024658203125 35.014183044433594 37.09467697143555
H 49.384796142578125 36.05899429321289 36.788108825683594
C 50.162506103515625 34.173988342285156 36.15858459472656
H 50.574161529541016 33.307655334472656 36.67426681518555
C 50.48685836791992 34.46275329589844 34.89787292480469
C 49.84493637084961 35.59233093261719 34.15909194946289
H 49.80392837524414 36.58444595336914 34.6135139465332
H 50.22603225708008 35.63176345825195 33.13650894165039
H 48.8220329284668 35.214210510253906 34.10293197631836
C 51.38444519042969 33.66482925415039 34.07471466064453
H 51.86653137207031 34.14783477783203 33.22605514526367
C 51.600196838378906 32.41560363769531 34.39588928222656
H 51.21733856201172 31.875024795532227 35.26024627685547
C 52.549068450927734 31.502695083618164 33.648868560791016
H 52.94959259033203 31.993759155273438 32.76322937011719
C 52.8017463684082 30.189773559570312 33.83154296875
C 52.09599304199219 29.389284133911133 34.93023681640625
H 51.0207633972168 29.51703453063965 34.788719177246094
H 52.2425537109375 28.30780792236328 34.96755599975586
H 52.506202697753906 29.72631072998047 35.884490966796875
C 53.55634307861328 29.44682502746582 32.8555908203125
H 53.821102142333984 30.00375747680664 31.958011627197266
C 54.071495056152344 28.216102600097656 32.90357971191406
H 53.96638870239258 27.66957664489746 33.83962631225586
C 54.86030960083008 27.52691650390625 31.870813369750977
C 54.744903564453125 27.77132797241211 30.551319122314453
C 53.672950744628906 28.565563201904297 29.79035186767578
H 52.71294403076172 28.621925354003906 30.30771827697754
H 53.97324752807617 29.612150192260742 29.707046508789062
H 53.47573471069336 28.15953826904297 28.7960147857666
C 55.74168395996094 27.179080963134766 29.568185806274414
H 55.86353302001953 27.926856994628906 28.781770706176758
H 55.22599792480469 26.30988883972168 29.154619216918945
C 57.1181755065918 26.844850540161133 30.112991333007812
H 57.7407341003418 27.72931480407715 30.263364791870117
H 57.7628288269043 26.311426162719727 29.411317825317383
C 56.886138916015625 25.958271026611328 31.44317626953125
H 56.2718391418457 25.095458984375 31.1773738861084
H 57.82035446166992 25.55615997314453 31.84068489074707
C 56.059715270996094 26.708894729614258 32.51104736328125
C 55.597557067871094 25.656553268432617 33.42844772338867
H 54.7615852355957 25.105472564697266 32.99264907836914
H 56.41733932495117 24.97618293762207 33.668277740478516
H 55.23601150512695 26.039628982543945 34.38500213623047
C 57.07243347167969 27.551485061645508 33.22060775756836
H 57.857357025146484 27.1133975982666 33.84063720703125
H 57.61384201049805 28.136066436767578 32.473876953125
H 56.51472473144531 28.248397827148438 33.84968185424805
