207
Triad, Carotenoid-Porphyrin-C60
C 37.39206314086914 37.242862701416016 55.12797546386719
C 34.698116302490234 40.919185638427734 50.58208465576172
C 35.84761047363281 38.99857711791992 50.333229064941406
C 36.43783187866211 37.07284164428711 51.673797607421875
C 33.539588928222656 42.15519332885742 52.277061462402344
C 34.576148986816406 42.15019607543945 51.30499267578125
C 32.78921890258789 40.005645751953125 51.708656311035156
C 34.12843704223633 37.597251892089844 51.422935485839844
C 35.17922592163086 36.72105026245117 55.542015075683594
C 32.63029861450195 41.161949157714844 52.433319091796875
C 36.88341522216797 36.63117599487305 53.99000549316406
C 34.52473449707031 42.353721618652344 55.68922424316406
C 33.99339294433594 42.868934631347656 53.40647888183594
C 35.11397171020508 40.47714614868164 57.033119201660156
C 33.82365798950195 38.441837310791016 56.559303283691406
C 34.98927688598633 39.07103729248047 57.098411560058594
C 32.62067413330078 41.428184509277344 54.822731018066406
C 32.35456085205078 38.88800811767578 52.42218017578125
C 33.11050033569336 37.718631744384766 52.35540771484375
C 33.02302932739258 37.405826568603516 54.734771728515625
C 38.855018615722656 41.025794982910156 52.44939422607422
C 37.82125473022461 42.10701370239258 52.72361755371094
C 38.130821228027344 40.20896530151367 51.362274169921875
C 37.07121658325195 41.010318756103516 50.911827087402344
C 37.164947509765625 39.61137390136719 56.696441650390625
C 37.45515823364258 42.45961380004883 54.02714538574219
C 37.30100631713867 37.037567138671875 52.731285095214844
C 35.853187561035156 42.70735168457031 55.53313446044922
C 35.352561950683594 43.119728088378906 53.237457275390625
C 36.4815559387207 40.77207946777344 56.81438446044922
C 37.88700485229492 38.854026794433594 51.50524139404297
C 33.06050109863281 40.658058166503906 55.9014892578125
C 32.88930892944336 39.304447174072266 56.01844787597656
C 33.379180908203125 36.9224967956543 53.43470764160156
C 32.02387237548828 39.33591842651367 53.717872619628906
C 39.27800750732422 40.16363525390625 53.675392150878906
C 38.57526397705078 40.57536315917969 54.992332458496094
C 38.807865142822266 38.67021942138672 53.73656463623047
C 38.201194763183594 39.505401611328125 55.75995635986328
C 33.92169189453125 37.321781158447266 55.77012634277344
C 36.872764587402344 42.15045166015625 51.663848876953125
C 38.186988830566406 38.103492736816406 52.62010192871094
C 38.264892578125 38.32600021362305 54.95196533203125
C 36.802833557128906 38.2122802734375 50.890625
C 36.24135208129883 38.546024322509766 56.82630920410156
C 37.84581756591797 41.71047592163086 55.116905212402344
C 36.248504638671875 43.08647155761719 54.251708984375
C 36.005104064941406 40.37615203857422 50.33280944824219
C 35.643550872802734 42.70408248901367 51.95789337158203
C 32.37584686279297 38.6237907409668 54.86109161376953
C 36.821678161621094 41.89020919799805 56.06774139404297
C 36.34797668457031 37.36686706542969 56.027381896972656
C 33.83625030517578 39.884559631347656 50.774688720703125
C 34.5059700012207 38.689605712890625 50.65289306640625
C 35.090702056884766 36.74715805053711 51.92927551269531
C 35.5447883605957 36.29296875 54.214454650878906
C 33.58597183227539 42.474300384521484 54.649383544921875
C 34.148887634277344 41.25971221923828 56.462615966796875
C 34.63386154174805 36.355045318603516 53.16577911376953
C 32.2080078125 40.73760986328125 53.66838073730469
C 40.19456481933594 41.692440032958984 52.09803009033203
N 41.20934295654297 41.344608306884766 52.863739013671875
C 40.7996711730957 40.33330154418945 53.853904724121094
H 41.171913146972656 40.786983489990234 54.7760009765625
H 41.44917297363281 39.46544647216797 53.71382141113281
C 40.332462310791016 45.1938362121582 49.471290588378906
C 41.09825134277344 45.10121536254883 50.67302703857422
H 41.70700454711914 45.93391799926758 51.01594543457031
C 41.00674819946289 43.96464920043945 51.48529815673828
H 41.54627227783203 43.811466217041016 52.41643524169922
C 40.31481170654297 42.804420471191406 51.11621856689453
C 39.681373596191406 43.980220794677734 49.0570068359375
H 39.12437438964844 44.02347946166992 48.12456512451172
C 39.71146011352539 42.81745147705078 49.873558044433594
H 39.1594123840332 41.933807373046875 49.56373596191406
C 40.342559814453125 46.461368560791016 48.646324157714844
C 40.969825744628906 47.66267776489258 49.165504455566406
C 40.892860412597656 48.22944259643555 50.37223815917969
H 40.3154411315918 47.85386276245117 51.210540771484375
C 41.75273132324219 49.31118392944336 50.36676788330078
H 41.920936584472656 49.93849563598633 51.23591613769531
C 42.16231155395508 49.632503509521484 49.11140441894531
N 41.69294357299805 48.561946868896484 48.417816162109375
H 41.78681945800781 48.46866226196289 47.41551971435547
C 42.90302276611328 50.81290054321289 48.53595733642578
H 42.97541427612305 51.777774810791016 49.03565979003906
C 43.30086898803711 50.88937759399414 47.215843200683594
C 43.60407638549805 52.0881233215332 46.63166809082031
H 43.53532409667969 53.04172134399414 47.1446533203125
C 43.9332160949707 51.80759048461914 45.325538635253906
H 44.02652359008789 52.552425384521484 44.5421257019043
C 43.717525482177734 50.43179702758789 45.14312744140625
N 43.393123626708984 49.88040542602539 46.36305236816406
C 43.84699630737305 49.70431137084961 43.900535583496094
C 42.74593734741211 49.06462478637695 43.39869689941406
C 42.02574157714844 49.34640121459961 42.24245071411133
H 42.438045501708984 49.96462631225586 41.451866149902344
C 40.792518615722656 48.70167922973633 42.25361251831055
H 40.0487060546875 48.71543502807617 41.46381759643555
C 40.648170471191406 48.1096076965332 43.50664520263672
N 41.86619186401367 48.32479476928711 44.10103225708008
H 42.1291618347168 47.97280502319336 45.011566162109375
C 39.66697692871094 47.35065841674805 43.96894454956055
H 38.806766510009766 47.053096771240234 43.37110137939453
C 39.41830062866211 46.87508773803711 45.289466857910156
C 38.22673034667969 46.18501663208008 45.75409698486328
H 37.366275787353516 46.01187515258789 45.116241455078125
C 38.38675308227539 46.10508346557617 47.11766815185547
H 37.690269470214844 45.7040901184082 47.846595764160156
C 39.6868782043457 46.456783294677734 47.410301208496094
N 40.21414566040039 47.04147720336914 46.365447998046875
C 47.62468338012695 50.04478073120117 41.69721984863281
C 46.51077651977539 49.296810150146484 41.338623046875
H 46.676239013671875 48.76152420043945 40.407142639160156
C 45.276695251464844 49.26529312133789 41.964752197265625
H 44.49025344848633 48.60055923461914 41.616600036621094
C 45.12454605102539 49.91385269165039 43.1716423034668
C 47.46732711791992 50.68486404418945 42.88268280029297
H 48.2327995300293 51.39979934692383 43.173343658447266
C 46.2630615234375 50.62369155883789 43.64933395385742
H 46.21330261230469 51.11972427368164 44.61527633666992
N 48.79530715942383 50.05939865112305 40.83098220825195
H 48.548892974853516 50.24776840209961 39.8708381652832
C 50.12266540527344 49.953861236572266 41.189945220947266
O 50.41913986206055 49.76760482788086 42.38535690307617
C 51.21096420288086 50.191898345947266 40.24742889404297
C 52.419029235839844 50.80463790893555 40.622344970703125
H 52.47860336303711 51.05904006958008 41.67747497558594
C 53.4053955078125 51.12797164916992 39.6918830871582
C 53.18663024902344 50.84465408325195 38.3604621887207
H 53.91215133666992 51.0763053894043 37.58488082885742
C 52.020652770996094 50.17487716674805 38.010215759277344
H 51.859039306640625 50.00075912475586 36.949493408203125
C 51.014617919921875 49.953853607177734 38.90412902832031
H 50.12063980102539 49.40291976928711 38.623321533203125
C 54.67631530761719 51.77811813354492 40.15966033935547
H 54.73469161987305 51.950260162353516 41.23338317871094
C 55.74616622924805 52.10213088989258 39.447547912597656
H 55.638816833496094 51.946651458740234 38.37506103515625
C 57.08087921142578 52.57863235473633 39.83908462524414
C 58.17953872680664 52.429500579833984 38.78325653076172
H 57.97283935546875 51.69437789916992 38.00265121459961
H 59.02580642700195 51.99956130981445 39.3231201171875
H 58.39872360229492 53.43435287475586 38.41625213623047
C 57.395973205566406 53.16709518432617 41.02347183227539
H 56.534358978271484 53.175846099853516 41.68940734863281
C 58.76990509033203 53.6210823059082 41.37373733520508
H 59.51453399658203 53.650203704833984 40.57963180541992
C 59.054725646972656 53.89131546020508 42.65055847167969
H 58.221134185791016 53.95779800415039 43.348148345947266
C 60.3402214050293 54.27431106567383 43.152862548828125
C 61.46799850463867 53.98911666870117 42.267356872558594
H 62.38502883911133 54.23898696899414 42.80501937866211
H 61.50722885131836 52.936893463134766 41.97794723510742
H 61.445377349853516 54.56563949584961 41.3402214050293
C 60.478302001953125 55.02290725708008 44.33419418334961
H 59.52558517456055 55.25263595581055 44.80904006958008
C 61.67182159423828 55.52492141723633 45.0297737121582
H 62.67487335205078 55.2289924621582 44.72605895996094
C 61.53858184814453 56.2987174987793 46.14909362792969
H 60.563201904296875 56.637264251708984 46.495399475097656
C 62.608455657958984 56.79777908325195 47.087806701660156
H 63.59040451049805 56.99760055541992 46.661460876464844
C 62.43989181518555 56.96345138549805 48.39537811279297
C 61.136558532714844 56.628604888916016 49.0360107421875
H 60.553653717041016 57.54989242553711 49.0985107421875
H 60.623775482177734 55.885128021240234 48.422203063964844
H 61.33877182006836 56.26357650756836 50.045135498046875
C 63.428016662597656 57.51016616821289 49.32745361328125
H 62.949405670166016 57.94401931762695 50.20416259765625
C 64.71652221679688 57.52324295043945 49.191123962402344
H 65.09518432617188 57.108882904052734 48.2579345703125
C 65.60248565673828 58.1547966003418 50.10969543457031
H 65.18201446533203 58.81112289428711 50.870201110839844
C 66.93913269042969 58.078853607177734 50.11085510253906
C 67.61170959472656 57.206966400146484 49.087486267089844
H 66.97325897216797 56.34389114379883 48.88762664794922
H 68.03787231445312 57.651119232177734 48.18550109863281
H 68.42212677001953 56.73698806762695 49.64855194091797
C 67.83319091796875 58.64142990112305 51.194068908691406
H 67.2834701538086 58.95743179321289 52.079437255859375
C 69.17798614501953 58.62077713012695 51.16088104248047
H 69.66759490966797 58.20963668823242 50.27931213378906
C 70.09172821044922 59.038516998291016 52.203407287597656
C 70.08283996582031 58.50802230834961 53.41790008544922
C 69.214111328125 57.323299407958984 53.90312957763672
H 68.8302230834961 57.36882400512695 54.924407958984375
H 68.46540069580078 57.03072738647461 53.16400909423828
H 69.77745056152344 56.38930130004883 53.85052490234375
C 71.06529235839844 58.8544807434082 54.547203063964844
H 71.29615783691406 58.02402114868164 55.2176513671875
H 70.47892761230469 59.549556732177734 55.15178680419922
C 72.33662414550781 59.572757720947266 54.01708984375
H 73.007080078125 58.88075637817383 53.503196716308594
H 72.93705749511719 60.02244186401367 54.810646057128906
C 71.83906555175781 60.7449836730957 53.04315948486328
H 71.19405364990234 61.361331939697266 53.67286682128906
H 72.60296630859375 61.4615592956543 52.73423767089844
C 71.0380859375 60.24343490600586 51.86830139160156
C 70.36943054199219 61.36699295043945 51.19995880126953
H 70.97054290771484 62.275691986083984 51.126548767089844
H 69.9236831665039 61.08503341674805 50.24378967285156
H 69.56195831298828 61.669620513916016 51.86994171142578
C 72.06277465820312 59.78694534301758 50.84144592285156
H 72.90813446044922 60.47573471069336 50.78324890136719
H 72.37942504882812 58.7676887512207 51.072349548339844
H 71.61348724365234 59.70352554321289 49.84965515136719
