207
Triad, Carotenoid-Porphyrin-C60
C 51.75201416015625 45.56083679199219 34.72557830810547
C 55.42524719238281 50.63642883300781 36.22840881347656
C 56.019813537597656 48.56903076171875 35.7120361328125
C 55.08638000488281 46.678741455078125 34.618934631347656
C 53.49243927001953 52.138427734375 36.02767562866211
C 54.40100860595703 51.412818908691406 36.80363082885742
C 54.58601379394531 51.30375671386719 34.03915786743164
C 55.40789031982422 48.76914978027344 33.36349868774414
C 51.551002502441406 46.724212646484375 32.83689880371094
C 53.57887268066406 51.99053955078125 34.68353271484375
C 53.022308349609375 45.675086975097656 34.14780807495117
C 50.155357360839844 51.02454376220703 36.313819885253906
C 52.2740478515625 52.113624572753906 36.67622756958008
C 49.22686004638672 49.12858581542969 35.15478515625
C 50.255218505859375 48.77500915527344 32.949615478515625
C 49.558692932128906 48.27607727050781 34.06636428833008
C 51.212005615234375 51.856056213378906 34.52409362792969
C 54.08381652832031 50.750038146972656 32.88100814819336
C 54.53288269042969 49.465553283691406 32.567256927490234
C 52.260826110839844 48.89220428466797 32.00023651123047
C 53.491249084472656 47.34681701660156 38.844120025634766
C 53.02574920654297 48.81342315673828 38.90275192260742
C 54.66999816894531 47.559173583984375 37.91971206665039
C 54.993125915527344 48.899383544921875 37.886131286621094
C 49.68115997314453 47.10963439941406 35.925601959228516
C 51.69256591796875 49.16266632080078 38.72106170654297
C 54.13063049316406 45.75361633300781 35.0105094909668
C 50.16436767578125 50.294921875 37.506160736083984
C 52.37212371826172 51.288841247558594 37.804656982421875
C 49.26214599609375 48.356300354003906 36.34225845336914
C 54.92365264892578 46.72357940673828 36.841407775878906
C 50.30358123779297 50.95356750488281 34.03090286254883
C 50.60558319091797 50.09477233886719 32.94145584106445
C 53.60753631591797 48.563026428222656 32.08151626586914
C 52.74998474121094 51.139801025390625 32.79512405395508
C 52.425331115722656 46.30382537841797 38.351409912109375
C 51.091033935546875 46.92571258544922 37.913299560546875
C 52.73754119873047 45.62317657470703 36.99147415161133
C 50.58222198486328 46.397926330566406 36.68950271606445
C 51.31169128417969 48.03285217285156 32.403358459472656
C 54.04364776611328 49.69099426269531 38.40451431274414
C 53.969627380371094 45.81169128417969 36.41200256347656
C 51.644920349121094 45.65827941894531 36.11715316772461
C 55.58064270019531 47.25147247314453 35.776702880859375
C 49.78759002685547 47.038108825683594 34.53328323364258
C 50.756141662597656 48.231903076171875 38.23857498168945
C 51.352928161621094 50.422523498535156 38.28340148925781
C 55.70185089111328 49.413970947265625 36.785160064697266
C 53.69541931152344 50.942787170410156 37.889190673828125
C 51.84086608886719 50.228111267089844 32.31789016723633
C 49.74223327636719 48.93903350830078 37.583106994628906
C 50.85594940185547 46.262939453125 33.936241149902344
C 55.5662841796875 50.59907531738281 34.83601379394531
C 55.94325256347656 49.29948425292969 34.53923797607422
C 54.99146270751953 47.41987609863281 33.436668395996094
C 52.92420959472656 46.386924743652344 32.967586517333984
C 51.14624786376953 51.913185119628906 35.887393951416016
C 49.634613037109375 50.424476623535156 35.12582778930664
C 53.93122100830078 47.294578552246094 32.56656265258789
C 52.458038330078125 51.940330505371094 33.878334045410156
C 53.97056579589844 46.69568634033203 40.170902252197266
N 53.34496307373047 45.604530334472656 40.4854736328125
C 52.257530212402344 45.30217742919922 39.5036735534668
H 51.30335235595703 45.32386016845703 40.03632354736328
H 52.48748016357422 44.27538299560547 39.20792007446289
C 57.00624084472656 48.31965637207031 42.835105895996094
C 56.02050018310547 49.144447326660156 42.301841735839844
H 55.91461944580078 50.1531982421875 42.69271469116211
C 55.130775451660156 48.60432434082031 41.372314453125
H 54.323036193847656 49.220603942871094 40.98588562011719
C 55.07025909423828 47.23511505126953 41.01274108886719
C 56.957359313964844 46.95951843261719 42.4683952331543
H 57.699310302734375 46.33723449707031 42.962215423583984
C 55.913421630859375 46.39201354980469 41.656734466552734
H 55.87689971923828 45.32892608642578 41.432952880859375
C 58.10096740722656 48.83275604248047 43.77594757080078
C 57.955467224121094 50.204200744628906 44.2226448059082
C 57.989288330078125 51.423606872558594 43.64760971069336
H 58.28251647949219 51.530662536621094 42.60848617553711
C 57.791603088378906 52.493019104003906 44.553993225097656
H 57.80095672607422 53.575111389160156 44.47525405883789
C 57.50926971435547 51.83099365234375 45.747676849365234
N 57.60773468017578 50.481048583984375 45.5216064453125
H 57.51941680908203 49.873390197753906 46.324771881103516
C 57.279014587402344 52.29188537597656 47.14546585083008
H 57.04822540283203 53.34820556640625 47.27529525756836
C 57.357460021972656 51.596435546875 48.3438606262207
C 57.341514587402344 52.238128662109375 49.60355758666992
H 57.138153076171875 53.29521179199219 49.73939895629883
C 57.52100372314453 51.29376983642578 50.567691802978516
H 57.7320556640625 51.359214782714844 51.62995529174805
C 57.68286895751953 50.03142547607422 49.8756103515625
N 57.6187744140625 50.30108642578125 48.54428482055664
C 58.10840606689453 48.780555725097656 50.513736724853516
C 59.13776397705078 48.05653381347656 49.982826232910156
C 60.33460998535156 47.55047607421875 50.51573181152344
H 60.67064666748047 47.568382263183594 51.54722595214844
C 61.04100036621094 46.90814971923828 49.52767562866211
H 62.024078369140625 46.481056213378906 49.696128845214844
C 60.49064636230469 47.15739440917969 48.27057647705078
N 59.37068176269531 47.798301696777344 48.64766311645508
H 58.71453857421875 48.10516357421875 47.942378997802734
C 60.856849670410156 46.65283203125 47.097408294677734
H 61.7579345703125 46.041526794433594 47.11378479003906
C 60.226341247558594 46.97676086425781 45.81085205078125
C 60.78068542480469 46.69781494140625 44.50653839111328
H 61.69519805908203 46.12629699707031 44.3871955871582
C 59.922325134277344 47.324134826660156 43.587318420410156
H 60.16911315917969 47.38177490234375 42.53233337402344
C 58.949188232421875 47.96546936035156 44.31995391845703
N 59.198516845703125 47.769813537597656 45.6396484375
C 55.452667236328125 46.8975830078125 53.30056381225586
C 56.75376892089844 46.369773864746094 53.07858657836914
H 56.94786834716797 45.431251525878906 53.59149932861328
C 57.56317138671875 46.9278564453125 52.139015197753906
H 58.538780212402344 46.486671447753906 51.95161819458008
C 57.217002868652344 48.1624755859375 51.53278350830078
C 55.04969024658203 48.040802001953125 52.55097198486328
H 54.12781524658203 48.589332580566406 52.726566314697266
C 55.979759216308594 48.708984375 51.772499084472656
H 55.665679931640625 49.580055236816406 51.20314407348633
N 54.548133850097656 46.32258605957031 54.28704071044922
H 54.99699401855469 45.566871643066406 54.78252410888672
C 53.28395080566406 46.712127685546875 54.717166900634766
O 52.574378967285156 47.5157470703125 54.11442947387695
C 52.844947814941406 45.862648010253906 55.8549690246582
C 51.54551696777344 45.77234649658203 56.21257019042969
H 50.735374450683594 46.24071502685547 55.659507751464844
C 51.110191345214844 45.191558837890625 57.364501953125
C 52.02613830566406 44.50663757324219 58.17179870605469
H 51.717041015625 43.92456817626953 59.036216735839844
C 53.36260986328125 44.50965118408203 57.78585433959961
H 54.081512451171875 44.100982666015625 58.491363525390625
C 53.79435729980469 45.262542724609375 56.65921401977539
H 54.87379455566406 45.36162567138672 56.57814025878906
C 49.64537048339844 45.32093811035156 57.72758865356445
H 49.22630310058594 45.886817932128906 56.89687728881836
C 49.00141143798828 44.87995147705078 58.843482971191406
H 49.59034729003906 44.280517578125 59.53612518310547
C 47.659332275390625 45.12439727783203 59.26028060913086
C 47.30287170410156 44.94310760498047 60.699989318847656
H 47.87709045410156 44.114166259765625 61.11903381347656
H 46.27759552001953 44.56822204589844 60.726966857910156
H 47.459815979003906 45.86890411376953 61.25743103027344
C 46.769264221191406 45.733985900878906 58.471256256103516
H 46.99591064453125 46.022071838378906 57.44580078125
C 45.48778533935547 46.24189758300781 58.84315490722656
H 44.951881408691406 45.98920440673828 59.756874084472656
C 44.78514099121094 47.00299835205078 57.97697448730469
H 45.325592041015625 47.33293914794922 57.09098434448242
C 43.36851501464844 47.481651306152344 58.02527618408203
C 42.8330078125 47.97264099121094 56.70018005371094
H 43.295318603515625 48.87977600097656 56.30543518066406
H 43.000030517578125 47.231658935546875 55.91562271118164
H 41.753929138183594 48.11927795410156 56.78110122680664
C 42.53570556640625 47.446624755859375 59.072166442871094
H 42.954383850097656 46.997596740722656 59.97161102294922
C 41.11608123779297 47.829917907714844 59.19724655151367
H 40.546783447265625 48.22399139404297 58.356689453125
C 40.43528747558594 47.71784210205078 60.34214401245117
H 40.97453308105469 47.33037567138672 61.205284118652344
C 39.03868103027344 48.058387756347656 60.51177978515625
H 38.54634094238281 48.38640594482422 59.59749221801758
C 38.359100341796875 48.083351135253906 61.685089111328125
C 39.04426574707031 47.669708251953125 62.9519157409668
H 39.961265563964844 48.260353088378906 63.004051208496094
H 38.36872100830078 47.724525451660156 63.808128356933594
H 39.361480712890625 46.635284423828125 62.80427932739258
C 36.99919891357422 48.39591979980469 61.92304611206055
H 36.63008117675781 48.220062255859375 62.932376861572266
C 36.28639221191406 49.181251525878906 61.079837799072266
H 36.790809631347656 49.456398010253906 60.15475082397461
C 34.990455627441406 49.757904052734375 61.41102981567383
H 34.478633880615234 49.36876678466797 62.289974212646484
C 34.268348693847656 50.486175537109375 60.51490020751953
C 34.72770309448242 50.98650360107422 59.226158142089844
H 34.52168655395508 50.340476989746094 58.37019729614258
H 34.284751892089844 51.95074462890625 58.96827697753906
H 35.814613342285156 51.07738494873047 59.17294692993164
C 32.94349670410156 50.90332794189453 60.890193939208984
H 32.700016021728516 50.71723937988281 61.93518829345703
C 32.008872985839844 51.39752197265625 60.06513977050781
H 32.28736114501953 51.550689697265625 59.02355194091797
C 30.646442413330078 51.83985137939453 60.47810363769531
C 29.828807830810547 50.98747253417969 61.12268829345703
C 30.11833953857422 49.52879333496094 61.51734924316406
H 30.30437469482422 49.62187194824219 62.589351654052734
H 29.318347930908203 48.803855895996094 61.35323715209961
H 30.95257568359375 49.11151885986328 60.94955062866211
C 28.485572814941406 51.263755798339844 61.64333724975586
H 28.550731658935547 51.20525360107422 62.7318229675293
H 27.858299255371094 50.438270568847656 61.30046463012695
C 27.897808074951172 52.66545867919922 61.19149398803711
H 27.16234588623047 53.08570861816406 61.88065719604492
H 27.434223175048828 52.541831970214844 60.210540771484375
C 28.984012603759766 53.630882263183594 61.04783248901367
H 28.568370819091797 54.615196228027344 60.82237243652344
H 29.380847930908203 53.67676544189453 62.06414031982422
C 30.154388427734375 53.285423278808594 60.125511169433594
C 29.652080535888672 53.38971710205078 58.661441802978516
H 28.887042999267578 52.680397033691406 58.33885955810547
H 29.19281768798828 54.349754333496094 58.416770935058594
H 30.513904571533203 53.11278533935547 58.05067825317383
C 31.23807144165039 54.29151916503906 60.323604583740234
H 30.972564697265625 55.350738525390625 60.32723617553711
H 31.73801040649414 53.96870422363281 61.239200592041016
H 31.824108123779297 54.175743103027344 59.409481048583984
