207
Triad, Carotenoid-Porphyrin-C60
C 60.139713287353516 36.372222900390625 57.087013244628906
C 53.98988723754883 35.33131790161133 55.29973602294922
C 55.80020523071289 35.907718658447266 54.091487884521484
C 58.21599197387695 35.83223342895508 54.1614875793457
C 53.599063873291016 34.3647346496582 57.40431213378906
C 53.42380905151367 35.45612335205078 56.565834045410156
C 54.74943923950195 33.04202651977539 55.718387603759766
C 56.95212173461914 33.77360916137695 54.2218017578125
C 60.0861930847168 34.12233352661133 57.23441696166992
C 54.209232330322266 33.16618347167969 57.01073455810547
C 59.94803237915039 35.899803161621094 55.80634307861328
C 55.537906646728516 34.9390983581543 60.36063766479492
C 53.81122970581055 34.82709503173828 58.722320556640625
C 57.97623825073242 34.76411819458008 60.496952056884766
C 58.889949798583984 33.072566986083984 59.03300094604492
C 59.10222244262695 34.282958984375 59.802852630615234
C 55.265438079833984 33.04842758178711 59.15288543701172
C 55.9127311706543 32.337646484375 55.794559478759766
C 57.049442291259766 32.68442916870117 55.06754684448242
C 58.5562629699707 32.29734802246094 56.965087890625
C 56.30997848510742 39.13059616088867 56.785743713378906
C 55.18413162231445 38.47690200805664 57.593441009521484
C 56.11738967895508 38.30398178100586 55.47261428833008
C 54.92863082885742 37.595497131347656 55.478214263916016
C 59.11800003051758 36.468467712402344 59.641021728515625
C 55.462650299072266 38.06767272949219 58.948707580566406
C 59.12797927856445 36.58583450317383 54.90850830078125
C 55.59811782836914 36.31824493408203 60.347801208496094
C 53.8463020324707 36.22019958496094 58.66239547729492
C 58.029056549072266 36.20024871826172 60.427757263183594
C 57.160526275634766 37.73375701904297 54.77021789550781
C 56.51167678833008 33.0324821472168 59.70030212402344
C 57.62381362915039 32.44119644165039 59.017948150634766
C 58.36262130737305 32.6923828125 55.59663009643555
C 56.103511810302734 31.981279373168945 57.13327407836914
C 57.749691009521484 39.105316162109375 57.35606002807617
C 57.877262115478516 38.497314453125 58.77030944824219
C 58.70231246948242 38.194847106933594 56.624568939208984
C 58.99666213989258 37.590545654296875 58.76202392578125
C 59.43071365356445 32.98650360107422 57.75861358642578
C 54.3985710144043 37.69029998779297 56.787620544433594
C 58.42722702026367 37.70172882080078 55.35506057739258
C 59.53618240356445 37.504051208496094 57.522178649902344
C 57.032772064208984 36.553768157958984 54.091609954833984
C 59.77213668823242 35.3156852722168 59.26872634887695
C 56.74991226196289 38.066123962402344 59.48637771606445
C 54.80368423461914 36.97212600708008 59.43257141113281
C 54.69520950317383 36.419189453125 54.768898010253906
C 53.658084869384766 36.60700225830078 57.294334411621094
C 57.44529342651367 31.92632484436035 57.690547943115234
C 56.88216781616211 36.941505432128906 60.330448150634766
C 60.2609977722168 35.26801681518555 57.949066162109375
C 54.68107223510742 34.18718338012695 54.915863037109375
C 55.77565383911133 34.53746795654297 54.16481018066406
C 58.1497917175293 34.4302864074707 54.22809982299805
C 59.87333297729492 34.46221160888672 55.8770866394043
C 54.66781997680664 34.20946502685547 59.53777313232422
C 56.70610427856445 34.13394546508789 60.50543212890625
C 59.01211929321289 33.762168884277344 55.02930450439453
C 55.02450180053711 32.475284576416016 57.902854919433594
C 56.13503646850586 40.60551834106445 56.461875915527344
N 57.10685348510742 41.38330841064453 56.73614501953125
C 58.19086837768555 40.60636901855469 57.32231521606445
H 58.483882904052734 40.91556930541992 58.328887939453125
H 58.9781608581543 40.678306579589844 56.56756591796875
C 52.383724212646484 42.54243469238281 55.34934997558594
C 52.72220993041992 42.411678314208984 56.66764450073242
H 52.03268051147461 42.736534118652344 57.44261932373047
C 53.917964935302734 41.74034881591797 57.06879806518555
H 54.145145416259766 41.71859359741211 58.13157272338867
C 54.799556732177734 41.21385955810547 56.115352630615234
C 53.2653923034668 42.050716400146484 54.39866638183594
H 53.09605026245117 42.41075134277344 53.38710403442383
C 54.4938850402832 41.45597839355469 54.73704147338867
H 55.2161750793457 41.300785064697266 53.9396858215332
C 51.13938522338867 43.21275329589844 54.96287536621094
C 50.360172271728516 43.98439025878906 56.00276184082031
C 49.652706146240234 43.54326629638672 57.13774871826172
H 49.48318099975586 42.516929626464844 57.446163177490234
C 48.9579963684082 44.71870040893555 57.66387939453125
H 48.250431060791016 44.728721618652344 58.48636245727539
C 49.360172271728516 45.84090042114258 56.882118225097656
N 50.23501968383789 45.366485595703125 55.95802688598633
H 50.72934341430664 45.969085693359375 55.31410598754883
C 49.25101089477539 47.319557189941406 57.04621124267578
H 48.87080001831055 47.59031677246094 58.03010177612305
C 49.49160385131836 48.365234375 56.15719223022461
C 50.18313217163086 49.45654296875 56.63789749145508
H 50.41714096069336 49.572059631347656 57.691043853759766
C 50.65299606323242 50.1143798828125 55.516056060791016
H 51.40202713012695 50.89262390136719 55.41349792480469
C 50.08003616333008 49.501258850097656 54.36436462402344
N 49.47488784790039 48.34032440185547 54.79536437988281
C 50.325069427490234 49.777618408203125 52.95173645019531
C 50.279972076416016 48.773040771484375 52.00510025024414
C 49.67874526977539 48.855560302734375 50.673648834228516
H 49.33736038208008 49.80144500732422 50.2662353515625
C 49.533992767333984 47.594886779785156 50.14433670043945
H 49.1404914855957 47.413108825683594 49.149681091308594
C 50.01543045043945 46.663658142089844 51.02240753173828
N 50.422420501708984 47.404014587402344 52.14163589477539
H 50.87777328491211 46.95550537109375 52.92497253417969
C 49.98904037475586 45.301185607910156 50.75248718261719
H 49.617855072021484 45.100303649902344 49.74860382080078
C 50.34621047973633 44.20549774169922 51.745357513427734
C 50.3879280090332 42.81056594848633 51.56324005126953
H 50.08774185180664 42.300209045410156 50.65403747558594
C 50.67929458618164 42.2979621887207 52.77140808105469
H 50.607601165771484 41.24300765991211 53.01462173461914
C 50.891605377197266 43.33074951171875 53.6137809753418
N 50.67148208618164 44.500267028808594 53.036231994628906
C 51.03353500366211 53.875457763671875 51.60880661010742
C 51.45612716674805 52.775054931640625 50.837162017822266
H 51.78822708129883 52.94305419921875 49.815860748291016
C 51.209102630615234 51.48686981201172 51.303733825683594
H 51.61709976196289 50.76819610595703 50.59760284423828
C 50.684879302978516 51.19525146484375 52.506492614746094
C 50.467044830322266 53.611732482910156 52.86586380004883
H 50.00631332397461 54.40858459472656 53.444068908691406
C 50.42148208618164 52.29509735107422 53.32857894897461
H 49.95418167114258 52.167930603027344 54.30173110961914
N 51.03598403930664 55.21672821044922 51.06049728393555
H 51.89182662963867 55.547813415527344 50.64097595214844
C 49.87917709350586 55.92103576660156 50.947975158691406
O 48.8697624206543 55.634483337402344 51.45819091796875
C 49.942195892333984 57.172523498535156 50.05764389038086
C 48.81608963012695 57.555938720703125 49.290313720703125
H 47.89639663696289 57.031822204589844 49.537353515625
C 48.98270797729492 58.47003173828125 48.22026443481445
C 50.1572151184082 59.235931396484375 48.12687683105469
H 50.2428092956543 59.9085693359375 47.277286529541016
C 51.28047561645508 58.86339569091797 48.8240966796875
H 52.23575210571289 59.27936553955078 48.514278411865234
C 51.137638092041016 57.852928161621094 49.75886154174805
H 52.04911422729492 57.55510711669922 50.270809173583984
C 47.73860549926758 58.70207977294922 47.37489700317383
H 46.91231918334961 58.10589599609375 47.75925064086914
C 47.62369918823242 59.43836975097656 46.243141174316406
H 48.485721588134766 60.00050354003906 45.88697052001953
C 46.46829605102539 59.49336242675781 45.37672805786133
C 45.10416030883789 59.338539123535156 46.02409362792969
H 44.323612213134766 59.62226104736328 45.3150749206543
H 45.084529876708984 60.075157165527344 46.82999038696289
H 45.02878952026367 58.326515197753906 46.42732620239258
C 46.634098052978516 59.65873718261719 44.05842208862305
H 47.6690559387207 59.71324920654297 43.724056243896484
C 45.62826919555664 59.53221893310547 42.95382308959961
H 44.58279037475586 59.501930236816406 43.2570915222168
C 45.93319320678711 59.68724060058594 41.669029235839844
H 46.972171783447266 59.85752868652344 41.39072799682617
C 45.11185836791992 59.820472717285156 40.442237854003906
C 45.75777816772461 60.57830810546875 39.30022430419922
H 45.31977462768555 60.26239013671875 38.35111618041992
H 45.58921432495117 61.65686798095703 39.32789993286133
H 46.840518951416016 60.461639404296875 39.21951675415039
C 43.86124801635742 59.345001220703125 40.4285774230957
H 43.56002426147461 58.75725555419922 41.29446029663086
C 42.8764762878418 59.52074432373047 39.36399841308594
H 43.23972702026367 60.1004638671875 38.5167121887207
C 41.694828033447266 58.91248321533203 39.236515045166016
H 41.40044021606445 58.34934997558594 40.12090301513672
C 40.7118034362793 58.99109649658203 38.19778823852539
H 40.835323333740234 59.91670227050781 37.63750076293945
C 39.69523239135742 58.1275634765625 37.975284576416016
C 39.47427749633789 56.93629455566406 38.78898620605469
H 38.7989616394043 56.19145965576172 38.362823486328125
H 40.46461868286133 56.494346618652344 38.91691970825195
H 39.09805679321289 57.08844757080078 39.80277633666992
C 38.6601676940918 58.25932312011719 36.91463851928711
H 38.15182876586914 57.33155059814453 36.65625762939453
C 38.247928619384766 59.40443420410156 36.377708435058594
H 38.780948638916016 60.33134460449219 36.58423614501953
C 37.14791488647461 59.535064697265625 35.40669250488281
H 36.4656867980957 58.686378479003906 35.421417236328125
C 36.98427200317383 60.57476043701172 34.54605484008789
C 38.006160736083984 61.673912048339844 34.57728958129883
H 39.017093658447266 61.3846435546875 34.28266525268555
H 37.83877182006836 62.466766357421875 33.84528732299805
H 38.01114273071289 62.066253662109375 35.59636306762695
C 35.98091506958008 60.68761444091797 33.470611572265625
H 35.3217887878418 59.824256896972656 33.39265441894531
C 35.787479400634766 61.65778350830078 32.60179138183594
H 36.316219329833984 62.605499267578125 32.692317962646484
C 34.72244644165039 61.84043884277344 31.56831169128418
C 34.24985885620117 63.038002014160156 31.190446853637695
C 34.646427154541016 64.4566650390625 31.63313865661621
H 34.0656852722168 65.23058319091797 31.12691879272461
H 34.43808364868164 64.4244613647461 32.704593658447266
H 35.72139358520508 64.61579132080078 31.525558471679688
C 33.03474807739258 63.176414489746094 30.298912048339844
H 33.16598129272461 63.565040588378906 29.286874771118164
H 32.4308967590332 64.0238265991211 30.630155563354492
C 32.10725021362305 61.913421630859375 30.18451499938965
H 31.30171012878418 61.951194763183594 29.44820213317871
H 31.7386531829834 61.81736755371094 31.207931518554688
C 33.135501861572266 60.86402893066406 29.838302612304688
H 32.62581253051758 59.95530700683594 29.51132583618164
H 33.70424270629883 61.17847442626953 28.960737228393555
C 34.06898880004883 60.50830841064453 31.040443420410156
C 33.180057525634766 59.705970764160156 32.05525207519531
H 33.10133743286133 60.212120056152344 33.0196533203125
H 32.197086334228516 59.42163848876953 31.673961639404297
H 33.73384475708008 58.80006408691406 32.31045913696289
C 35.02340316772461 59.551788330078125 30.47926139831543
H 35.60989761352539 58.961753845214844 31.186613082885742
H 34.49357223510742 58.7811279296875 29.915498733520508
H 35.66123580932617 60.046844482421875 29.74403190612793
