207
Triad, Carotenoid-Porphyrin-C60
C 44.71889114379883 55.97967529296875 52.67330551147461
C 50.01369857788086 58.870853424072266 50.394588470458984
C 48.05237579345703 58.4340934753418 49.36861801147461
C 45.80219268798828 57.899539947509766 49.93001937866211
C 50.806129455566406 59.089691162109375 52.62332534790039
C 50.9128303527832 58.48443603515625 51.370121002197266
C 49.13270950317383 60.67631149291992 51.844669342041016
C 46.75627899169922 60.06271743774414 50.50114822387695
C 44.481536865234375 58.0486946105957 53.6322135925293
C 49.92691421508789 60.210567474365234 52.834102630615234
C 44.53386688232422 56.92671585083008 51.673213958740234
C 49.77680587768555 57.151737213134766 55.40346145629883
C 50.99786376953125 58.18756866455078 53.65468978881836
C 47.47883987426758 56.59210205078125 55.980472564697266
C 45.990596771240234 58.530601501464844 55.44865036010742
C 46.21099853515625 57.141048431396484 55.6862678527832
C 49.310302734375 59.289859771728516 54.89738845825195
C 47.899070739746094 61.0991325378418 52.3826789855957
C 46.74895095825195 60.6938362121582 51.76103591918945
C 45.64229202270508 60.17205810546875 53.8551139831543
C 48.711509704589844 54.39961624145508 50.679996490478516
C 49.8352165222168 55.011192321777344 51.482913970947266
C 48.40825271606445 55.64921951293945 49.84492874145508
C 49.43330383300781 56.54485321044922 49.9461555480957
C 46.388641357421875 55.09560775756836 54.71853256225586
C 50.023338317871094 54.85499954223633 52.83980941772461
C 45.24787902832031 56.78786087036133 50.5082893371582
C 49.86936569213867 55.943511962890625 54.76923751831055
C 51.16622543334961 56.975868225097656 52.984981536865234
C 47.616966247558594 55.3734245300293 55.37388229370117
C 47.14677429199219 56.14128112792969 49.52980422973633
C 48.27688217163086 58.87239074707031 55.69206619262695
C 47.02626037597656 59.41470718383789 55.493412017822266
C 45.57693099975586 60.29020690917969 52.45528793334961
C 47.95044708251953 60.905086517333984 53.79091262817383
C 47.44392395019531 53.811885833740234 51.443607330322266
C 47.67025375366211 54.02615737915039 52.912593841552734
C 46.159568786621094 54.70853805541992 51.25065994262695
C 46.44605255126953 54.440547943115234 53.46842575073242
C 45.18643569946289 58.99153137207031 54.4139289855957
C 50.3477668762207 56.151554107666016 50.8842658996582
C 46.02690505981445 55.73141098022461 50.34940719604492
C 45.55717086791992 54.86524963378906 52.46510696411133
C 46.994773864746094 57.5190315246582 49.24397659301758
C 45.577301025390625 56.2330322265625 54.90177536010742
C 48.90277099609375 54.3455810546875 53.556514739990234
C 50.645179748535156 55.85215377807617 53.61598587036133
C 49.291194915771484 57.92855453491211 49.68916702270508
C 51.0800895690918 57.13674545288086 51.6168327331543
C 46.843387603759766 60.41769790649414 54.56710433959961
C 48.861297607421875 54.970054626464844 54.7635383605957
C 44.780128479003906 56.68336868286133 53.84311294555664
C 49.14433288574219 59.94501876831055 50.6064567565918
C 47.92380142211914 59.64044952392578 49.94577407836914
C 45.659942626953125 59.1783332824707 50.51906967163086
C 44.4015998840332 58.18086624145508 52.26961135864258
C 50.22707748413086 58.25843811035156 54.76372146606445
C 48.5257682800293 57.51576614379883 55.95473861694336
C 44.908531188964844 59.31936264038086 51.67112350463867
C 49.249916076660156 60.364383697509766 54.01076889038086
C 49.138553619384766 53.11310958862305 49.94601058959961
N 48.294193267822266 52.14496612548828 49.9658088684082
C 47.33501434326172 52.35418701171875 51.00252151489258
H 47.544246673583984 51.8157958984375 51.930423736572266
H 46.313961029052734 52.04084396362305 50.770320892333984
C 52.140953063964844 53.21780014038086 46.93593215942383
C 52.42341232299805 52.8338623046875 48.236576080322266
H 53.39311981201172 52.46218490600586 48.55766677856445
C 51.367252349853516 52.76367950439453 49.187992095947266
H 51.54362487792969 52.398765563964844 50.19660568237305
C 50.145225524902344 53.19389343261719 48.85300064086914
C 50.831260681152344 53.613216400146484 46.55545425415039
H 50.594688415527344 53.646018981933594 45.49501419067383
C 49.83217239379883 53.659969329833984 47.58143997192383
H 48.83989715576172 54.10363006591797 47.57033157348633
C 53.34291076660156 53.25368881225586 45.948360443115234
C 54.652565002441406 52.860694885253906 46.43962478637695
C 55.44332504272461 53.46074676513672 47.370609283447266
H 55.15656661987305 54.32338333129883 47.96293258666992
C 56.657649993896484 52.68767166137695 47.4637336730957
H 57.52286911010742 52.84199905395508 48.099979400634766
C 56.593910217285156 51.756324768066406 46.52273178100586
N 55.33607482910156 51.77711868286133 45.96357345581055
H 54.94352340698242 51.05409240722656 45.37599563598633
C 57.561702728271484 50.790199279785156 46.097293853759766
H 58.26579666137695 50.563690185546875 46.89658737182617
C 57.70043182373047 50.17079544067383 44.87190628051758
C 58.93650817871094 49.57914352416992 44.469661712646484
H 59.904762268066406 49.59547424316406 44.958988189697266
C 58.64630126953125 49.119659423828125 43.18283462524414
H 59.34224319458008 48.66077423095703 42.488346099853516
C 57.30413055419922 49.31297302246094 42.94728469848633
N 56.746524810791016 50.11052703857422 43.90468978881836
C 56.55487060546875 48.943363189697266 41.73360824584961
C 55.72883987426758 49.89377212524414 41.10556411743164
C 55.69684982299805 50.227012634277344 39.75092697143555
H 56.00851058959961 49.5990104675293 38.922855377197266
C 54.941104888916016 51.377071380615234 39.565067291259766
H 54.86792755126953 51.89616394042969 38.615116119384766
C 54.533287048339844 51.86078643798828 40.8562126159668
N 55.055824279785156 50.91532516479492 41.63737869262695
H 54.956398010253906 50.96104049682617 42.64243698120117
C 53.96304702758789 53.023460388183594 41.1974983215332
H 53.679771423339844 53.761409759521484 40.448429107666016
C 53.51433563232422 53.50048828125 42.50395584106445
C 52.911346435546875 54.815513610839844 42.76071548461914
H 52.71318817138672 55.62987518310547 42.07167434692383
C 52.75748062133789 54.85062026977539 44.10761642456055
H 52.41972732543945 55.715240478515625 44.669376373291016
C 53.1491584777832 53.591041564941406 44.62051773071289
N 53.68534469604492 52.87240219116211 43.65950393676758
C 56.34491729736328 44.79866027832031 40.27705001831055
C 55.551090240478516 45.83154296875 39.7783317565918
H 54.80290603637695 45.56891632080078 39.03481674194336
C 55.637874603271484 47.158206939697266 40.21772384643555
H 54.980857849121094 47.88096618652344 39.7407341003418
C 56.52266311645508 47.528564453125 41.244083404541016
C 57.13622283935547 45.18600082397461 41.37251663208008
H 57.52651596069336 44.476890563964844 42.09804916381836
C 57.2552604675293 46.53703689575195 41.8217658996582
H 57.89582443237305 46.68073272705078 42.68813705444336
N 55.92686462402344 43.45353698730469 40.1864128112793
H 55.51339340209961 43.1046028137207 41.0380973815918
C 56.005306243896484 42.67633056640625 39.05880355834961
O 56.59649658203125 43.05988693237305 38.060115814208984
C 55.20167922973633 41.44026184082031 39.17094802856445
C 54.175941467285156 41.26887512207031 40.120182037353516
H 53.88550567626953 42.08755874633789 40.77360916137695
C 53.48048400878906 40.06864929199219 40.1450080871582
C 53.791229248046875 39.02122116088867 39.35673904418945
H 53.309715270996094 38.06721496582031 39.55571365356445
C 54.78659439086914 39.128849029541016 38.4154167175293
H 55.00651550292969 38.34590530395508 37.69417190551758
C 55.4699821472168 40.358009338378906 38.32548141479492
H 56.24078369140625 40.52579116821289 37.577632904052734
C 52.32065963745117 39.90850067138672 41.0224723815918
H 52.1645393371582 40.75262451171875 41.69254684448242
C 51.5102653503418 38.830291748046875 41.27754592895508
H 51.541507720947266 37.928287506103516 40.66817092895508
C 50.2865104675293 38.686256408691406 42.062076568603516
C 49.67051696777344 37.385494232177734 42.02800369262695
H 49.89169692993164 36.86522674560547 41.09373092651367
H 48.59014892578125 37.3287467956543 42.17649459838867
H 50.091468811035156 36.74989700317383 42.80984878540039
C 49.80430603027344 39.69412612915039 42.76487350463867
H 50.2628173828125 40.681636810302734 42.742122650146484
C 48.58990478515625 39.67679977416992 43.63621139526367
H 48.21040725708008 38.70977020263672 43.962955474853516
C 48.0411376953125 40.8026123046875 44.13515853881836
H 48.43959426879883 41.76596450805664 43.82033920288086
C 47.00434875488281 41.07603073120117 45.17165756225586
C 46.96945571899414 42.486026763916016 45.68000411987305
H 46.032047271728516 42.97003936767578 45.398128509521484
H 47.208335876464844 42.533687591552734 46.7444953918457
H 47.77027893066406 43.073516845703125 45.226131439208984
C 46.24027633666992 40.07096862792969 45.64506149291992
H 46.47410583496094 39.08903121948242 45.23635482788086
C 45.294437408447266 40.23848342895508 46.74691390991211
H 45.03804016113281 41.274688720703125 46.96245193481445
C 44.8970832824707 39.18621063232422 47.43611526489258
H 45.43741989135742 38.28544235229492 47.148746490478516
C 44.08565139770508 39.243316650390625 48.67070388793945
H 43.72254180908203 40.250789642333984 48.86835861206055
C 43.811458587646484 38.29684829711914 49.617801666259766
C 44.19635772705078 36.897911071777344 49.53030776977539
H 43.815643310546875 36.31245422363281 50.369808197021484
H 43.922115325927734 36.301002502441406 48.65797805786133
H 45.282833099365234 36.90626525878906 49.63968276977539
C 43.044273376464844 38.68091583251953 50.82486343383789
H 42.73182678222656 37.78583908081055 51.360721588134766
C 42.705379486083984 39.912071228027344 51.23965072631836
H 43.01197052001953 40.81998062133789 50.72233200073242
C 41.90180206298828 40.132320404052734 52.43753433227539
H 41.515953063964844 39.29595184326172 53.01850509643555
C 41.588714599609375 41.325660705566406 53.03606033325195
C 42.11410903930664 42.60907745361328 52.52926254272461
H 43.15716552734375 42.68952560424805 52.84232711791992
H 42.04729080200195 42.51736831665039 51.443172454833984
H 41.50466537475586 43.459041595458984 52.8432731628418
C 40.73828887939453 41.352333068847656 54.2868766784668
H 40.35850143432617 40.41950225830078 54.70100784301758
C 40.38957595825195 42.38820266723633 55.12074661254883
H 40.775489807128906 43.38394546508789 54.907474517822266
C 39.430076599121094 42.278900146484375 56.3094596862793
C 38.49052810668945 41.29542922973633 56.44382095336914
C 38.06248474121094 40.23505401611328 55.46049880981445
H 38.669498443603516 39.359466552734375 55.6999626159668
H 36.99813461303711 39.997589111328125 55.51737594604492
H 38.149635314941406 40.669673919677734 54.4625129699707
C 37.675960540771484 41.05543899536133 57.731502532958984
H 37.6115608215332 39.968040466308594 57.808231353759766
H 36.66365051269531 41.35552978515625 57.45286178588867
C 38.378021240234375 41.699344635009766 58.93539047241211
H 39.357421875 41.25396728515625 59.12215042114258
H 37.76193618774414 41.5984992980957 59.83134841918945
C 38.5816650390625 43.17324447631836 58.474910736083984
H 37.667396545410156 43.52135467529297 57.98972702026367
H 38.79851150512695 43.75778579711914 59.37143325805664
C 39.64793395996094 43.27103805541992 57.41569900512695
C 39.618961334228516 44.760643005371094 56.91791915893555
H 39.5344352722168 45.49635696411133 57.7204475402832
H 40.56578826904297 45.0906982421875 56.48542404174805
H 38.845947265625 44.94138717651367 56.168087005615234
C 41.00787353515625 43.154178619384766 58.08182144165039
H 41.076866149902344 42.11223602294922 58.40127182006836
H 41.79774856567383 43.51443099975586 57.41941452026367
H 41.0109748840332 43.732784271240234 59.0079231262207
